version 3
run Uploading-0-20250919-19:50:50-17196
attr configname Uploading
attr datetime 20250919-19:50:50
attr datetimef 20250919-195050
attr experiment Uploading
attr inifile omnetpp.ini
attr iterationvars ""
attr iterationvarsd ""
attr iterationvarsf ""
attr measurement ""
attr network mecRT.simulations.decentralized.DeMEC
attr processid 17196
attr repetition 0
attr replication #0
attr resultdir results
attr runnumber 0
attr seedset 12345
config image-path ../../images:../../../inet4.5/images:../../../simu5g/images
config *.enableInitDebug false
config sim-time-limit 900s
config **.rescheduleAll true
config *.numUe 5
config **.srsDistanceCheck true
config **.enableBackhaul true
config **.fairFactor 1
config **.countExeTime true
config **.scheduleInterval 10s
config **.scheduleScheme "\"FwdGreedy\""
config **.offloadOverhead 0.001s
config **.countExeTime true
config **.scheduler.localPort 1000
config *.ue[*].macCellId 0
config *.ue[*].masterId 0
config *.ue[*].nrMacCellId 1
config *.ue[*].nrMasterId 1
config *.ue[*].numApps 1
config *.ue[*].app[*].schedulerAddr "\"schedulerHost\""
config *.ue[*].app[*].schedulerPort 1000
config *.ue[*].app[*].localPort "4000 + ancestorIndex(1) * 10 + index"
config *.ue[*].udp.mtu 409600B
config *.ue[*].app[*].dlScale 1.5
config *.gnb[*].server.localPort "2000 + ancestorIndex(1)"
config *.gnb[*].server.schedulerAddr "\"schedulerHost\""
config *.gnb[*].server.schedulerPort 1000
config *.gnb[*].server.cmpUnitTotal 20
config *.gnb[*].udp.mtu 409600B
config **.pilotMode "\"MEDIAN_CQI\""
config *.upf.ospf.ospfConfig "xmldoc(\"ospfConfig.xml\")"
config output-scalar-file-append false
config network mecRT.simulations.decentralized.DeMEC
config sim-time-limit 900s
config warmup-period 0s
config seed-set 12345
config **.routingRecorder.enabled false
config **.amcType "\"NRAmc\""
config **.targetBler 0.01
config **.blerShift 5
config *.configurator.config "xmldoc(\"./demo.xml\")"
config **.mobility.constraintAreaMaxX 1500m
config **.mobility.constraintAreaMaxY 1500m
config **.mobility.constraintAreaMinX 0m
config **.mobility.constraintAreaMinY 0m
config **.mobility.constraintAreaMinZ 0m
config **.mobility.constraintAreaMaxZ 0m
config **.mobility.initFromDisplayString false
config **.lo.mtu 409600B
config **.ip2nic.mtu 409600B
config **.ppp.mtu 409600B
config **.downlink_interference true
config **.uplink_interference true
config **.ueTxPower 50
config **.eNodeBTxPower 1000
config **.fbPeriod 30
config **.srsDistanceCheck true
config **.srsDistance 600m
config *.carrierAggregation.numComponentCarriers 1
config *.carrierAggregation.componentCarrier[0].carrierFrequency 2GHz
config *.carrierAggregation.componentCarrier[0].numBands 18
config *.carrierAggregation.componentCarrier[0].numerologyIndex 0
config **.numRbPerBand 15
config *.bandManager.numerologyIndex 0
config **.collectSinrStatistics false
config **.dynamicCellAssociation true
config *.database.vehExeDataPath "\"./profile/jetson_data.txt\""
config *.database.rsuExeDataPath "\"./profile/server_data.txt\""
config *.database.rsuPosDataPath "\"./traffic/RSU15_xy.txt\""
config *.database.rsuGraphPath "\"./traffic/RSU15_graph.txt\""
config *.topologyGen.topologyFile "\"./traffic/RSU15_graph.txt\""

par DeMEC.gnb[0].ppp$o.channel typename "\"inet.node.ethernet.Eth100G\""
par DeMEC.gnb[0].ppp$o.channel disabled false
attr mutable ""
par DeMEC.gnb[0].ppp$o.channel delay 5e-08s
attr mutable ""
attr unit s
par DeMEC.gnb[0].ppp$o.channel datarate 1e+11bps
attr mutable ""
attr unit bps
par DeMEC.gnb[0].ppp$o.channel ber 0
attr mutable ""
par DeMEC.gnb[0].ppp$o.channel per 0
attr mutable ""
par DeMEC.gnb[0].ppp$o.channel length 10m
attr unit m
par DeMEC.gnbRouter[0].pppg$o[0].channel typename "\"inet.node.ethernet.Eth100G\""
par DeMEC.gnbRouter[0].pppg$o[0].channel disabled false
attr mutable ""
par DeMEC.gnbRouter[0].pppg$o[0].channel delay 5e-08s
attr mutable ""
attr unit s
par DeMEC.gnbRouter[0].pppg$o[0].channel datarate 1e+11bps
attr mutable ""
attr unit bps
par DeMEC.gnbRouter[0].pppg$o[0].channel ber 0
attr mutable ""
par DeMEC.gnbRouter[0].pppg$o[0].channel per 0
attr mutable ""
par DeMEC.gnbRouter[0].pppg$o[0].channel length 10m
attr unit m
par DeMEC.gnb[1].ppp$o.channel typename "\"inet.node.ethernet.Eth100G\""
par DeMEC.gnb[1].ppp$o.channel disabled false
attr mutable ""
par DeMEC.gnb[1].ppp$o.channel delay 5e-08s
attr mutable ""
attr unit s
par DeMEC.gnb[1].ppp$o.channel datarate 1e+11bps
attr mutable ""
attr unit bps
par DeMEC.gnb[1].ppp$o.channel ber 0
attr mutable ""
par DeMEC.gnb[1].ppp$o.channel per 0
attr mutable ""
par DeMEC.gnb[1].ppp$o.channel length 10m
attr unit m
par DeMEC.gnbRouter[1].pppg$o[0].channel typename "\"inet.node.ethernet.Eth100G\""
par DeMEC.gnbRouter[1].pppg$o[0].channel disabled false
attr mutable ""
par DeMEC.gnbRouter[1].pppg$o[0].channel delay 5e-08s
attr mutable ""
attr unit s
par DeMEC.gnbRouter[1].pppg$o[0].channel datarate 1e+11bps
attr mutable ""
attr unit bps
par DeMEC.gnbRouter[1].pppg$o[0].channel ber 0
attr mutable ""
par DeMEC.gnbRouter[1].pppg$o[0].channel per 0
attr mutable ""
par DeMEC.gnbRouter[1].pppg$o[0].channel length 10m
attr unit m
par DeMEC.gnb[2].ppp$o.channel typename "\"inet.node.ethernet.Eth100G\""
par DeMEC.gnb[2].ppp$o.channel disabled false
attr mutable ""
par DeMEC.gnb[2].ppp$o.channel delay 5e-08s
attr mutable ""
attr unit s
par DeMEC.gnb[2].ppp$o.channel datarate 1e+11bps
attr mutable ""
attr unit bps
par DeMEC.gnb[2].ppp$o.channel ber 0
attr mutable ""
par DeMEC.gnb[2].ppp$o.channel per 0
attr mutable ""
par DeMEC.gnb[2].ppp$o.channel length 10m
attr unit m
par DeMEC.gnbRouter[2].pppg$o[0].channel typename "\"inet.node.ethernet.Eth100G\""
par DeMEC.gnbRouter[2].pppg$o[0].channel disabled false
attr mutable ""
par DeMEC.gnbRouter[2].pppg$o[0].channel delay 5e-08s
attr mutable ""
attr unit s
par DeMEC.gnbRouter[2].pppg$o[0].channel datarate 1e+11bps
attr mutable ""
attr unit bps
par DeMEC.gnbRouter[2].pppg$o[0].channel ber 0
attr mutable ""
par DeMEC.gnbRouter[2].pppg$o[0].channel per 0
attr mutable ""
par DeMEC.gnbRouter[2].pppg$o[0].channel length 10m
attr unit m
par DeMEC.gnb[3].ppp$o.channel typename "\"inet.node.ethernet.Eth100G\""
par DeMEC.gnb[3].ppp$o.channel disabled false
attr mutable ""
par DeMEC.gnb[3].ppp$o.channel delay 5e-08s
attr mutable ""
attr unit s
par DeMEC.gnb[3].ppp$o.channel datarate 1e+11bps
attr mutable ""
attr unit bps
par DeMEC.gnb[3].ppp$o.channel ber 0
attr mutable ""
par DeMEC.gnb[3].ppp$o.channel per 0
attr mutable ""
par DeMEC.gnb[3].ppp$o.channel length 10m
attr unit m
par DeMEC.gnbRouter[3].pppg$o[0].channel typename "\"inet.node.ethernet.Eth100G\""
par DeMEC.gnbRouter[3].pppg$o[0].channel disabled false
attr mutable ""
par DeMEC.gnbRouter[3].pppg$o[0].channel delay 5e-08s
attr mutable ""
attr unit s
par DeMEC.gnbRouter[3].pppg$o[0].channel datarate 1e+11bps
attr mutable ""
attr unit bps
par DeMEC.gnbRouter[3].pppg$o[0].channel ber 0
attr mutable ""
par DeMEC.gnbRouter[3].pppg$o[0].channel per 0
attr mutable ""
par DeMEC.gnbRouter[3].pppg$o[0].channel length 10m
attr unit m
par DeMEC.gnb[4].ppp$o.channel typename "\"inet.node.ethernet.Eth100G\""
par DeMEC.gnb[4].ppp$o.channel disabled false
attr mutable ""
par DeMEC.gnb[4].ppp$o.channel delay 5e-08s
attr mutable ""
attr unit s
par DeMEC.gnb[4].ppp$o.channel datarate 1e+11bps
attr mutable ""
attr unit bps
par DeMEC.gnb[4].ppp$o.channel ber 0
attr mutable ""
par DeMEC.gnb[4].ppp$o.channel per 0
attr mutable ""
par DeMEC.gnb[4].ppp$o.channel length 10m
attr unit m
par DeMEC.gnbRouter[4].pppg$o[0].channel typename "\"inet.node.ethernet.Eth100G\""
par DeMEC.gnbRouter[4].pppg$o[0].channel disabled false
attr mutable ""
par DeMEC.gnbRouter[4].pppg$o[0].channel delay 5e-08s
attr mutable ""
attr unit s
par DeMEC.gnbRouter[4].pppg$o[0].channel datarate 1e+11bps
attr mutable ""
attr unit bps
par DeMEC.gnbRouter[4].pppg$o[0].channel ber 0
attr mutable ""
par DeMEC.gnbRouter[4].pppg$o[0].channel per 0
attr mutable ""
par DeMEC.gnbRouter[4].pppg$o[0].channel length 10m
attr unit m
par DeMEC.gnb[5].ppp$o.channel typename "\"inet.node.ethernet.Eth100G\""
par DeMEC.gnb[5].ppp$o.channel disabled false
attr mutable ""
par DeMEC.gnb[5].ppp$o.channel delay 5e-08s
attr mutable ""
attr unit s
par DeMEC.gnb[5].ppp$o.channel datarate 1e+11bps
attr mutable ""
attr unit bps
par DeMEC.gnb[5].ppp$o.channel ber 0
attr mutable ""
par DeMEC.gnb[5].ppp$o.channel per 0
attr mutable ""
par DeMEC.gnb[5].ppp$o.channel length 10m
attr unit m
par DeMEC.gnbRouter[5].pppg$o[0].channel typename "\"inet.node.ethernet.Eth100G\""
par DeMEC.gnbRouter[5].pppg$o[0].channel disabled false
attr mutable ""
par DeMEC.gnbRouter[5].pppg$o[0].channel delay 5e-08s
attr mutable ""
attr unit s
par DeMEC.gnbRouter[5].pppg$o[0].channel datarate 1e+11bps
attr mutable ""
attr unit bps
par DeMEC.gnbRouter[5].pppg$o[0].channel ber 0
attr mutable ""
par DeMEC.gnbRouter[5].pppg$o[0].channel per 0
attr mutable ""
par DeMEC.gnbRouter[5].pppg$o[0].channel length 10m
attr unit m
par DeMEC.gnb[6].ppp$o.channel typename "\"inet.node.ethernet.Eth100G\""
par DeMEC.gnb[6].ppp$o.channel disabled false
attr mutable ""
par DeMEC.gnb[6].ppp$o.channel delay 5e-08s
attr mutable ""
attr unit s
par DeMEC.gnb[6].ppp$o.channel datarate 1e+11bps
attr mutable ""
attr unit bps
par DeMEC.gnb[6].ppp$o.channel ber 0
attr mutable ""
par DeMEC.gnb[6].ppp$o.channel per 0
attr mutable ""
par DeMEC.gnb[6].ppp$o.channel length 10m
attr unit m
par DeMEC.gnbRouter[6].pppg$o[0].channel typename "\"inet.node.ethernet.Eth100G\""
par DeMEC.gnbRouter[6].pppg$o[0].channel disabled false
attr mutable ""
par DeMEC.gnbRouter[6].pppg$o[0].channel delay 5e-08s
attr mutable ""
attr unit s
par DeMEC.gnbRouter[6].pppg$o[0].channel datarate 1e+11bps
attr mutable ""
attr unit bps
par DeMEC.gnbRouter[6].pppg$o[0].channel ber 0
attr mutable ""
par DeMEC.gnbRouter[6].pppg$o[0].channel per 0
attr mutable ""
par DeMEC.gnbRouter[6].pppg$o[0].channel length 10m
attr unit m
par DeMEC.gnb[7].ppp$o.channel typename "\"inet.node.ethernet.Eth100G\""
par DeMEC.gnb[7].ppp$o.channel disabled false
attr mutable ""
par DeMEC.gnb[7].ppp$o.channel delay 5e-08s
attr mutable ""
attr unit s
par DeMEC.gnb[7].ppp$o.channel datarate 1e+11bps
attr mutable ""
attr unit bps
par DeMEC.gnb[7].ppp$o.channel ber 0
attr mutable ""
par DeMEC.gnb[7].ppp$o.channel per 0
attr mutable ""
par DeMEC.gnb[7].ppp$o.channel length 10m
attr unit m
par DeMEC.gnbRouter[7].pppg$o[0].channel typename "\"inet.node.ethernet.Eth100G\""
par DeMEC.gnbRouter[7].pppg$o[0].channel disabled false
attr mutable ""
par DeMEC.gnbRouter[7].pppg$o[0].channel delay 5e-08s
attr mutable ""
attr unit s
par DeMEC.gnbRouter[7].pppg$o[0].channel datarate 1e+11bps
attr mutable ""
attr unit bps
par DeMEC.gnbRouter[7].pppg$o[0].channel ber 0
attr mutable ""
par DeMEC.gnbRouter[7].pppg$o[0].channel per 0
attr mutable ""
par DeMEC.gnbRouter[7].pppg$o[0].channel length 10m
attr unit m
par DeMEC.gnb[8].ppp$o.channel typename "\"inet.node.ethernet.Eth100G\""
par DeMEC.gnb[8].ppp$o.channel disabled false
attr mutable ""
par DeMEC.gnb[8].ppp$o.channel delay 5e-08s
attr mutable ""
attr unit s
par DeMEC.gnb[8].ppp$o.channel datarate 1e+11bps
attr mutable ""
attr unit bps
par DeMEC.gnb[8].ppp$o.channel ber 0
attr mutable ""
par DeMEC.gnb[8].ppp$o.channel per 0
attr mutable ""
par DeMEC.gnb[8].ppp$o.channel length 10m
attr unit m
par DeMEC.gnbRouter[8].pppg$o[0].channel typename "\"inet.node.ethernet.Eth100G\""
par DeMEC.gnbRouter[8].pppg$o[0].channel disabled false
attr mutable ""
par DeMEC.gnbRouter[8].pppg$o[0].channel delay 5e-08s
attr mutable ""
attr unit s
par DeMEC.gnbRouter[8].pppg$o[0].channel datarate 1e+11bps
attr mutable ""
attr unit bps
par DeMEC.gnbRouter[8].pppg$o[0].channel ber 0
attr mutable ""
par DeMEC.gnbRouter[8].pppg$o[0].channel per 0
attr mutable ""
par DeMEC.gnbRouter[8].pppg$o[0].channel length 10m
attr unit m
par DeMEC.gnb[9].ppp$o.channel typename "\"inet.node.ethernet.Eth100G\""
par DeMEC.gnb[9].ppp$o.channel disabled false
attr mutable ""
par DeMEC.gnb[9].ppp$o.channel delay 5e-08s
attr mutable ""
attr unit s
par DeMEC.gnb[9].ppp$o.channel datarate 1e+11bps
attr mutable ""
attr unit bps
par DeMEC.gnb[9].ppp$o.channel ber 0
attr mutable ""
par DeMEC.gnb[9].ppp$o.channel per 0
attr mutable ""
par DeMEC.gnb[9].ppp$o.channel length 10m
attr unit m
par DeMEC.gnbRouter[9].pppg$o[0].channel typename "\"inet.node.ethernet.Eth100G\""
par DeMEC.gnbRouter[9].pppg$o[0].channel disabled false
attr mutable ""
par DeMEC.gnbRouter[9].pppg$o[0].channel delay 5e-08s
attr mutable ""
attr unit s
par DeMEC.gnbRouter[9].pppg$o[0].channel datarate 1e+11bps
attr mutable ""
attr unit bps
par DeMEC.gnbRouter[9].pppg$o[0].channel ber 0
attr mutable ""
par DeMEC.gnbRouter[9].pppg$o[0].channel per 0
attr mutable ""
par DeMEC.gnbRouter[9].pppg$o[0].channel length 10m
attr unit m
par DeMEC.gnb[10].ppp$o.channel typename "\"inet.node.ethernet.Eth100G\""
par DeMEC.gnb[10].ppp$o.channel disabled false
attr mutable ""
par DeMEC.gnb[10].ppp$o.channel delay 5e-08s
attr mutable ""
attr unit s
par DeMEC.gnb[10].ppp$o.channel datarate 1e+11bps
attr mutable ""
attr unit bps
par DeMEC.gnb[10].ppp$o.channel ber 0
attr mutable ""
par DeMEC.gnb[10].ppp$o.channel per 0
attr mutable ""
par DeMEC.gnb[10].ppp$o.channel length 10m
attr unit m
par DeMEC.gnbRouter[10].pppg$o[0].channel typename "\"inet.node.ethernet.Eth100G\""
par DeMEC.gnbRouter[10].pppg$o[0].channel disabled false
attr mutable ""
par DeMEC.gnbRouter[10].pppg$o[0].channel delay 5e-08s
attr mutable ""
attr unit s
par DeMEC.gnbRouter[10].pppg$o[0].channel datarate 1e+11bps
attr mutable ""
attr unit bps
par DeMEC.gnbRouter[10].pppg$o[0].channel ber 0
attr mutable ""
par DeMEC.gnbRouter[10].pppg$o[0].channel per 0
attr mutable ""
par DeMEC.gnbRouter[10].pppg$o[0].channel length 10m
attr unit m
par DeMEC.gnb[11].ppp$o.channel typename "\"inet.node.ethernet.Eth100G\""
par DeMEC.gnb[11].ppp$o.channel disabled false
attr mutable ""
par DeMEC.gnb[11].ppp$o.channel delay 5e-08s
attr mutable ""
attr unit s
par DeMEC.gnb[11].ppp$o.channel datarate 1e+11bps
attr mutable ""
attr unit bps
par DeMEC.gnb[11].ppp$o.channel ber 0
attr mutable ""
par DeMEC.gnb[11].ppp$o.channel per 0
attr mutable ""
par DeMEC.gnb[11].ppp$o.channel length 10m
attr unit m
par DeMEC.gnbRouter[11].pppg$o[0].channel typename "\"inet.node.ethernet.Eth100G\""
par DeMEC.gnbRouter[11].pppg$o[0].channel disabled false
attr mutable ""
par DeMEC.gnbRouter[11].pppg$o[0].channel delay 5e-08s
attr mutable ""
attr unit s
par DeMEC.gnbRouter[11].pppg$o[0].channel datarate 1e+11bps
attr mutable ""
attr unit bps
par DeMEC.gnbRouter[11].pppg$o[0].channel ber 0
attr mutable ""
par DeMEC.gnbRouter[11].pppg$o[0].channel per 0
attr mutable ""
par DeMEC.gnbRouter[11].pppg$o[0].channel length 10m
attr unit m
par DeMEC.gnb[12].ppp$o.channel typename "\"inet.node.ethernet.Eth100G\""
par DeMEC.gnb[12].ppp$o.channel disabled false
attr mutable ""
par DeMEC.gnb[12].ppp$o.channel delay 5e-08s
attr mutable ""
attr unit s
par DeMEC.gnb[12].ppp$o.channel datarate 1e+11bps
attr mutable ""
attr unit bps
par DeMEC.gnb[12].ppp$o.channel ber 0
attr mutable ""
par DeMEC.gnb[12].ppp$o.channel per 0
attr mutable ""
par DeMEC.gnb[12].ppp$o.channel length 10m
attr unit m
par DeMEC.gnbRouter[12].pppg$o[0].channel typename "\"inet.node.ethernet.Eth100G\""
par DeMEC.gnbRouter[12].pppg$o[0].channel disabled false
attr mutable ""
par DeMEC.gnbRouter[12].pppg$o[0].channel delay 5e-08s
attr mutable ""
attr unit s
par DeMEC.gnbRouter[12].pppg$o[0].channel datarate 1e+11bps
attr mutable ""
attr unit bps
par DeMEC.gnbRouter[12].pppg$o[0].channel ber 0
attr mutable ""
par DeMEC.gnbRouter[12].pppg$o[0].channel per 0
attr mutable ""
par DeMEC.gnbRouter[12].pppg$o[0].channel length 10m
attr unit m
par DeMEC.gnb[13].ppp$o.channel typename "\"inet.node.ethernet.Eth100G\""
par DeMEC.gnb[13].ppp$o.channel disabled false
attr mutable ""
par DeMEC.gnb[13].ppp$o.channel delay 5e-08s
attr mutable ""
attr unit s
par DeMEC.gnb[13].ppp$o.channel datarate 1e+11bps
attr mutable ""
attr unit bps
par DeMEC.gnb[13].ppp$o.channel ber 0
attr mutable ""
par DeMEC.gnb[13].ppp$o.channel per 0
attr mutable ""
par DeMEC.gnb[13].ppp$o.channel length 10m
attr unit m
par DeMEC.gnbRouter[13].pppg$o[0].channel typename "\"inet.node.ethernet.Eth100G\""
par DeMEC.gnbRouter[13].pppg$o[0].channel disabled false
attr mutable ""
par DeMEC.gnbRouter[13].pppg$o[0].channel delay 5e-08s
attr mutable ""
attr unit s
par DeMEC.gnbRouter[13].pppg$o[0].channel datarate 1e+11bps
attr mutable ""
attr unit bps
par DeMEC.gnbRouter[13].pppg$o[0].channel ber 0
attr mutable ""
par DeMEC.gnbRouter[13].pppg$o[0].channel per 0
attr mutable ""
par DeMEC.gnbRouter[13].pppg$o[0].channel length 10m
attr unit m
par DeMEC.gnb[14].ppp$o.channel typename "\"inet.node.ethernet.Eth100G\""
par DeMEC.gnb[14].ppp$o.channel disabled false
attr mutable ""
par DeMEC.gnb[14].ppp$o.channel delay 5e-08s
attr mutable ""
attr unit s
par DeMEC.gnb[14].ppp$o.channel datarate 1e+11bps
attr mutable ""
attr unit bps
par DeMEC.gnb[14].ppp$o.channel ber 0
attr mutable ""
par DeMEC.gnb[14].ppp$o.channel per 0
attr mutable ""
par DeMEC.gnb[14].ppp$o.channel length 10m
attr unit m
par DeMEC.gnbRouter[14].pppg$o[0].channel typename "\"inet.node.ethernet.Eth100G\""
par DeMEC.gnbRouter[14].pppg$o[0].channel disabled false
attr mutable ""
par DeMEC.gnbRouter[14].pppg$o[0].channel delay 5e-08s
attr mutable ""
attr unit s
par DeMEC.gnbRouter[14].pppg$o[0].channel datarate 1e+11bps
attr mutable ""
attr unit bps
par DeMEC.gnbRouter[14].pppg$o[0].channel ber 0
attr mutable ""
par DeMEC.gnbRouter[14].pppg$o[0].channel per 0
attr mutable ""
par DeMEC.gnbRouter[14].pppg$o[0].channel length 10m
attr unit m
par DeMEC.gnbRouter[0].pppg$o[1].channel typename "\"inet.node.ethernet.Eth100G\""
par DeMEC.gnbRouter[0].pppg$o[1].channel disabled false
attr mutable ""
par DeMEC.gnbRouter[0].pppg$o[1].channel delay 5e-08s
attr mutable ""
attr unit s
par DeMEC.gnbRouter[0].pppg$o[1].channel datarate 1e+11bps
attr mutable ""
attr unit bps
par DeMEC.gnbRouter[0].pppg$o[1].channel ber 0
attr mutable ""
par DeMEC.gnbRouter[0].pppg$o[1].channel per 0
attr mutable ""
par DeMEC.gnbRouter[0].pppg$o[1].channel length 10m
attr unit m
par DeMEC.gnbRouter[1].pppg$o[1].channel typename "\"inet.node.ethernet.Eth100G\""
par DeMEC.gnbRouter[1].pppg$o[1].channel disabled false
attr mutable ""
par DeMEC.gnbRouter[1].pppg$o[1].channel delay 5e-08s
attr mutable ""
attr unit s
par DeMEC.gnbRouter[1].pppg$o[1].channel datarate 1e+11bps
attr mutable ""
attr unit bps
par DeMEC.gnbRouter[1].pppg$o[1].channel ber 0
attr mutable ""
par DeMEC.gnbRouter[1].pppg$o[1].channel per 0
attr mutable ""
par DeMEC.gnbRouter[1].pppg$o[1].channel length 10m
attr unit m
par DeMEC.gnbRouter[0].pppg$o[2].channel typename "\"inet.node.ethernet.Eth100G\""
par DeMEC.gnbRouter[0].pppg$o[2].channel disabled false
attr mutable ""
par DeMEC.gnbRouter[0].pppg$o[2].channel delay 5e-08s
attr mutable ""
attr unit s
par DeMEC.gnbRouter[0].pppg$o[2].channel datarate 1e+11bps
attr mutable ""
attr unit bps
par DeMEC.gnbRouter[0].pppg$o[2].channel ber 0
attr mutable ""
par DeMEC.gnbRouter[0].pppg$o[2].channel per 0
attr mutable ""
par DeMEC.gnbRouter[0].pppg$o[2].channel length 10m
attr unit m
par DeMEC.gnbRouter[3].pppg$o[1].channel typename "\"inet.node.ethernet.Eth100G\""
par DeMEC.gnbRouter[3].pppg$o[1].channel disabled false
attr mutable ""
par DeMEC.gnbRouter[3].pppg$o[1].channel delay 5e-08s
attr mutable ""
attr unit s
par DeMEC.gnbRouter[3].pppg$o[1].channel datarate 1e+11bps
attr mutable ""
attr unit bps
par DeMEC.gnbRouter[3].pppg$o[1].channel ber 0
attr mutable ""
par DeMEC.gnbRouter[3].pppg$o[1].channel per 0
attr mutable ""
par DeMEC.gnbRouter[3].pppg$o[1].channel length 10m
attr unit m
par DeMEC.gnbRouter[1].pppg$o[2].channel typename "\"inet.node.ethernet.Eth100G\""
par DeMEC.gnbRouter[1].pppg$o[2].channel disabled false
attr mutable ""
par DeMEC.gnbRouter[1].pppg$o[2].channel delay 5e-08s
attr mutable ""
attr unit s
par DeMEC.gnbRouter[1].pppg$o[2].channel datarate 1e+11bps
attr mutable ""
attr unit bps
par DeMEC.gnbRouter[1].pppg$o[2].channel ber 0
attr mutable ""
par DeMEC.gnbRouter[1].pppg$o[2].channel per 0
attr mutable ""
par DeMEC.gnbRouter[1].pppg$o[2].channel length 10m
attr unit m
par DeMEC.gnbRouter[2].pppg$o[1].channel typename "\"inet.node.ethernet.Eth100G\""
par DeMEC.gnbRouter[2].pppg$o[1].channel disabled false
attr mutable ""
par DeMEC.gnbRouter[2].pppg$o[1].channel delay 5e-08s
attr mutable ""
attr unit s
par DeMEC.gnbRouter[2].pppg$o[1].channel datarate 1e+11bps
attr mutable ""
attr unit bps
par DeMEC.gnbRouter[2].pppg$o[1].channel ber 0
attr mutable ""
par DeMEC.gnbRouter[2].pppg$o[1].channel per 0
attr mutable ""
par DeMEC.gnbRouter[2].pppg$o[1].channel length 10m
attr unit m
par DeMEC.gnbRouter[1].pppg$o[3].channel typename "\"inet.node.ethernet.Eth100G\""
par DeMEC.gnbRouter[1].pppg$o[3].channel disabled false
attr mutable ""
par DeMEC.gnbRouter[1].pppg$o[3].channel delay 5e-08s
attr mutable ""
attr unit s
par DeMEC.gnbRouter[1].pppg$o[3].channel datarate 1e+11bps
attr mutable ""
attr unit bps
par DeMEC.gnbRouter[1].pppg$o[3].channel ber 0
attr mutable ""
par DeMEC.gnbRouter[1].pppg$o[3].channel per 0
attr mutable ""
par DeMEC.gnbRouter[1].pppg$o[3].channel length 10m
attr unit m
par DeMEC.gnbRouter[3].pppg$o[2].channel typename "\"inet.node.ethernet.Eth100G\""
par DeMEC.gnbRouter[3].pppg$o[2].channel disabled false
attr mutable ""
par DeMEC.gnbRouter[3].pppg$o[2].channel delay 5e-08s
attr mutable ""
attr unit s
par DeMEC.gnbRouter[3].pppg$o[2].channel datarate 1e+11bps
attr mutable ""
attr unit bps
par DeMEC.gnbRouter[3].pppg$o[2].channel ber 0
attr mutable ""
par DeMEC.gnbRouter[3].pppg$o[2].channel per 0
attr mutable ""
par DeMEC.gnbRouter[3].pppg$o[2].channel length 10m
attr unit m
par DeMEC.gnbRouter[1].pppg$o[4].channel typename "\"inet.node.ethernet.Eth100G\""
par DeMEC.gnbRouter[1].pppg$o[4].channel disabled false
attr mutable ""
par DeMEC.gnbRouter[1].pppg$o[4].channel delay 5e-08s
attr mutable ""
attr unit s
par DeMEC.gnbRouter[1].pppg$o[4].channel datarate 1e+11bps
attr mutable ""
attr unit bps
par DeMEC.gnbRouter[1].pppg$o[4].channel ber 0
attr mutable ""
par DeMEC.gnbRouter[1].pppg$o[4].channel per 0
attr mutable ""
par DeMEC.gnbRouter[1].pppg$o[4].channel length 10m
attr unit m
par DeMEC.gnbRouter[4].pppg$o[1].channel typename "\"inet.node.ethernet.Eth100G\""
par DeMEC.gnbRouter[4].pppg$o[1].channel disabled false
attr mutable ""
par DeMEC.gnbRouter[4].pppg$o[1].channel delay 5e-08s
attr mutable ""
attr unit s
par DeMEC.gnbRouter[4].pppg$o[1].channel datarate 1e+11bps
attr mutable ""
attr unit bps
par DeMEC.gnbRouter[4].pppg$o[1].channel ber 0
attr mutable ""
par DeMEC.gnbRouter[4].pppg$o[1].channel per 0
attr mutable ""
par DeMEC.gnbRouter[4].pppg$o[1].channel length 10m
attr unit m
par DeMEC.gnbRouter[2].pppg$o[2].channel typename "\"inet.node.ethernet.Eth100G\""
par DeMEC.gnbRouter[2].pppg$o[2].channel disabled false
attr mutable ""
par DeMEC.gnbRouter[2].pppg$o[2].channel delay 5e-08s
attr mutable ""
attr unit s
par DeMEC.gnbRouter[2].pppg$o[2].channel datarate 1e+11bps
attr mutable ""
attr unit bps
par DeMEC.gnbRouter[2].pppg$o[2].channel ber 0
attr mutable ""
par DeMEC.gnbRouter[2].pppg$o[2].channel per 0
attr mutable ""
par DeMEC.gnbRouter[2].pppg$o[2].channel length 10m
attr unit m
par DeMEC.gnbRouter[4].pppg$o[2].channel typename "\"inet.node.ethernet.Eth100G\""
par DeMEC.gnbRouter[4].pppg$o[2].channel disabled false
attr mutable ""
par DeMEC.gnbRouter[4].pppg$o[2].channel delay 5e-08s
attr mutable ""
attr unit s
par DeMEC.gnbRouter[4].pppg$o[2].channel datarate 1e+11bps
attr mutable ""
attr unit bps
par DeMEC.gnbRouter[4].pppg$o[2].channel ber 0
attr mutable ""
par DeMEC.gnbRouter[4].pppg$o[2].channel per 0
attr mutable ""
par DeMEC.gnbRouter[4].pppg$o[2].channel length 10m
attr unit m
par DeMEC.gnbRouter[3].pppg$o[3].channel typename "\"inet.node.ethernet.Eth100G\""
par DeMEC.gnbRouter[3].pppg$o[3].channel disabled false
attr mutable ""
par DeMEC.gnbRouter[3].pppg$o[3].channel delay 5e-08s
attr mutable ""
attr unit s
par DeMEC.gnbRouter[3].pppg$o[3].channel datarate 1e+11bps
attr mutable ""
attr unit bps
par DeMEC.gnbRouter[3].pppg$o[3].channel ber 0
attr mutable ""
par DeMEC.gnbRouter[3].pppg$o[3].channel per 0
attr mutable ""
par DeMEC.gnbRouter[3].pppg$o[3].channel length 10m
attr unit m
par DeMEC.gnbRouter[4].pppg$o[3].channel typename "\"inet.node.ethernet.Eth100G\""
par DeMEC.gnbRouter[4].pppg$o[3].channel disabled false
attr mutable ""
par DeMEC.gnbRouter[4].pppg$o[3].channel delay 5e-08s
attr mutable ""
attr unit s
par DeMEC.gnbRouter[4].pppg$o[3].channel datarate 1e+11bps
attr mutable ""
attr unit bps
par DeMEC.gnbRouter[4].pppg$o[3].channel ber 0
attr mutable ""
par DeMEC.gnbRouter[4].pppg$o[3].channel per 0
attr mutable ""
par DeMEC.gnbRouter[4].pppg$o[3].channel length 10m
attr unit m
par DeMEC.gnbRouter[3].pppg$o[4].channel typename "\"inet.node.ethernet.Eth100G\""
par DeMEC.gnbRouter[3].pppg$o[4].channel disabled false
attr mutable ""
par DeMEC.gnbRouter[3].pppg$o[4].channel delay 5e-08s
attr mutable ""
attr unit s
par DeMEC.gnbRouter[3].pppg$o[4].channel datarate 1e+11bps
attr mutable ""
attr unit bps
par DeMEC.gnbRouter[3].pppg$o[4].channel ber 0
attr mutable ""
par DeMEC.gnbRouter[3].pppg$o[4].channel per 0
attr mutable ""
par DeMEC.gnbRouter[3].pppg$o[4].channel length 10m
attr unit m
par DeMEC.gnbRouter[6].pppg$o[1].channel typename "\"inet.node.ethernet.Eth100G\""
par DeMEC.gnbRouter[6].pppg$o[1].channel disabled false
attr mutable ""
par DeMEC.gnbRouter[6].pppg$o[1].channel delay 5e-08s
attr mutable ""
attr unit s
par DeMEC.gnbRouter[6].pppg$o[1].channel datarate 1e+11bps
attr mutable ""
attr unit bps
par DeMEC.gnbRouter[6].pppg$o[1].channel ber 0
attr mutable ""
par DeMEC.gnbRouter[6].pppg$o[1].channel per 0
attr mutable ""
par DeMEC.gnbRouter[6].pppg$o[1].channel length 10m
attr unit m
par DeMEC.gnbRouter[4].pppg$o[4].channel typename "\"inet.node.ethernet.Eth100G\""
par DeMEC.gnbRouter[4].pppg$o[4].channel disabled false
attr mutable ""
par DeMEC.gnbRouter[4].pppg$o[4].channel delay 5e-08s
attr mutable ""
attr unit s
par DeMEC.gnbRouter[4].pppg$o[4].channel datarate 1e+11bps
attr mutable ""
attr unit bps
par DeMEC.gnbRouter[4].pppg$o[4].channel ber 0
attr mutable ""
par DeMEC.gnbRouter[4].pppg$o[4].channel per 0
attr mutable ""
par DeMEC.gnbRouter[4].pppg$o[4].channel length 10m
attr unit m
par DeMEC.gnbRouter[5].pppg$o[1].channel typename "\"inet.node.ethernet.Eth100G\""
par DeMEC.gnbRouter[5].pppg$o[1].channel disabled false
attr mutable ""
par DeMEC.gnbRouter[5].pppg$o[1].channel delay 5e-08s
attr mutable ""
attr unit s
par DeMEC.gnbRouter[5].pppg$o[1].channel datarate 1e+11bps
attr mutable ""
attr unit bps
par DeMEC.gnbRouter[5].pppg$o[1].channel ber 0
attr mutable ""
par DeMEC.gnbRouter[5].pppg$o[1].channel per 0
attr mutable ""
par DeMEC.gnbRouter[5].pppg$o[1].channel length 10m
attr unit m
par DeMEC.gnbRouter[4].pppg$o[5].channel typename "\"inet.node.ethernet.Eth100G\""
par DeMEC.gnbRouter[4].pppg$o[5].channel disabled false
attr mutable ""
par DeMEC.gnbRouter[4].pppg$o[5].channel delay 5e-08s
attr mutable ""
attr unit s
par DeMEC.gnbRouter[4].pppg$o[5].channel datarate 1e+11bps
attr mutable ""
attr unit bps
par DeMEC.gnbRouter[4].pppg$o[5].channel ber 0
attr mutable ""
par DeMEC.gnbRouter[4].pppg$o[5].channel per 0
attr mutable ""
par DeMEC.gnbRouter[4].pppg$o[5].channel length 10m
attr unit m
par DeMEC.gnbRouter[6].pppg$o[2].channel typename "\"inet.node.ethernet.Eth100G\""
par DeMEC.gnbRouter[6].pppg$o[2].channel disabled false
attr mutable ""
par DeMEC.gnbRouter[6].pppg$o[2].channel delay 5e-08s
attr mutable ""
attr unit s
par DeMEC.gnbRouter[6].pppg$o[2].channel datarate 1e+11bps
attr mutable ""
attr unit bps
par DeMEC.gnbRouter[6].pppg$o[2].channel ber 0
attr mutable ""
par DeMEC.gnbRouter[6].pppg$o[2].channel per 0
attr mutable ""
par DeMEC.gnbRouter[6].pppg$o[2].channel length 10m
attr unit m
par DeMEC.gnbRouter[5].pppg$o[2].channel typename "\"inet.node.ethernet.Eth100G\""
par DeMEC.gnbRouter[5].pppg$o[2].channel disabled false
attr mutable ""
par DeMEC.gnbRouter[5].pppg$o[2].channel delay 5e-08s
attr mutable ""
attr unit s
par DeMEC.gnbRouter[5].pppg$o[2].channel datarate 1e+11bps
attr mutable ""
attr unit bps
par DeMEC.gnbRouter[5].pppg$o[2].channel ber 0
attr mutable ""
par DeMEC.gnbRouter[5].pppg$o[2].channel per 0
attr mutable ""
par DeMEC.gnbRouter[5].pppg$o[2].channel length 10m
attr unit m
par DeMEC.gnbRouter[6].pppg$o[3].channel typename "\"inet.node.ethernet.Eth100G\""
par DeMEC.gnbRouter[6].pppg$o[3].channel disabled false
attr mutable ""
par DeMEC.gnbRouter[6].pppg$o[3].channel delay 5e-08s
attr mutable ""
attr unit s
par DeMEC.gnbRouter[6].pppg$o[3].channel datarate 1e+11bps
attr mutable ""
attr unit bps
par DeMEC.gnbRouter[6].pppg$o[3].channel ber 0
attr mutable ""
par DeMEC.gnbRouter[6].pppg$o[3].channel per 0
attr mutable ""
par DeMEC.gnbRouter[6].pppg$o[3].channel length 10m
attr unit m
par DeMEC.gnbRouter[5].pppg$o[3].channel typename "\"inet.node.ethernet.Eth100G\""
par DeMEC.gnbRouter[5].pppg$o[3].channel disabled false
attr mutable ""
par DeMEC.gnbRouter[5].pppg$o[3].channel delay 5e-08s
attr mutable ""
attr unit s
par DeMEC.gnbRouter[5].pppg$o[3].channel datarate 1e+11bps
attr mutable ""
attr unit bps
par DeMEC.gnbRouter[5].pppg$o[3].channel ber 0
attr mutable ""
par DeMEC.gnbRouter[5].pppg$o[3].channel per 0
attr mutable ""
par DeMEC.gnbRouter[5].pppg$o[3].channel length 10m
attr unit m
par DeMEC.gnbRouter[9].pppg$o[1].channel typename "\"inet.node.ethernet.Eth100G\""
par DeMEC.gnbRouter[9].pppg$o[1].channel disabled false
attr mutable ""
par DeMEC.gnbRouter[9].pppg$o[1].channel delay 5e-08s
attr mutable ""
attr unit s
par DeMEC.gnbRouter[9].pppg$o[1].channel datarate 1e+11bps
attr mutable ""
attr unit bps
par DeMEC.gnbRouter[9].pppg$o[1].channel ber 0
attr mutable ""
par DeMEC.gnbRouter[9].pppg$o[1].channel per 0
attr mutable ""
par DeMEC.gnbRouter[9].pppg$o[1].channel length 10m
attr unit m
par DeMEC.gnbRouter[6].pppg$o[4].channel typename "\"inet.node.ethernet.Eth100G\""
par DeMEC.gnbRouter[6].pppg$o[4].channel disabled false
attr mutable ""
par DeMEC.gnbRouter[6].pppg$o[4].channel delay 5e-08s
attr mutable ""
attr unit s
par DeMEC.gnbRouter[6].pppg$o[4].channel datarate 1e+11bps
attr mutable ""
attr unit bps
par DeMEC.gnbRouter[6].pppg$o[4].channel ber 0
attr mutable ""
par DeMEC.gnbRouter[6].pppg$o[4].channel per 0
attr mutable ""
par DeMEC.gnbRouter[6].pppg$o[4].channel length 10m
attr unit m
par DeMEC.gnbRouter[7].pppg$o[1].channel typename "\"inet.node.ethernet.Eth100G\""
par DeMEC.gnbRouter[7].pppg$o[1].channel disabled false
attr mutable ""
par DeMEC.gnbRouter[7].pppg$o[1].channel delay 5e-08s
attr mutable ""
attr unit s
par DeMEC.gnbRouter[7].pppg$o[1].channel datarate 1e+11bps
attr mutable ""
attr unit bps
par DeMEC.gnbRouter[7].pppg$o[1].channel ber 0
attr mutable ""
par DeMEC.gnbRouter[7].pppg$o[1].channel per 0
attr mutable ""
par DeMEC.gnbRouter[7].pppg$o[1].channel length 10m
attr unit m
par DeMEC.gnbRouter[6].pppg$o[5].channel typename "\"inet.node.ethernet.Eth100G\""
par DeMEC.gnbRouter[6].pppg$o[5].channel disabled false
attr mutable ""
par DeMEC.gnbRouter[6].pppg$o[5].channel delay 5e-08s
attr mutable ""
attr unit s
par DeMEC.gnbRouter[6].pppg$o[5].channel datarate 1e+11bps
attr mutable ""
attr unit bps
par DeMEC.gnbRouter[6].pppg$o[5].channel ber 0
attr mutable ""
par DeMEC.gnbRouter[6].pppg$o[5].channel per 0
attr mutable ""
par DeMEC.gnbRouter[6].pppg$o[5].channel length 10m
attr unit m
par DeMEC.gnbRouter[8].pppg$o[1].channel typename "\"inet.node.ethernet.Eth100G\""
par DeMEC.gnbRouter[8].pppg$o[1].channel disabled false
attr mutable ""
par DeMEC.gnbRouter[8].pppg$o[1].channel delay 5e-08s
attr mutable ""
attr unit s
par DeMEC.gnbRouter[8].pppg$o[1].channel datarate 1e+11bps
attr mutable ""
attr unit bps
par DeMEC.gnbRouter[8].pppg$o[1].channel ber 0
attr mutable ""
par DeMEC.gnbRouter[8].pppg$o[1].channel per 0
attr mutable ""
par DeMEC.gnbRouter[8].pppg$o[1].channel length 10m
attr unit m
par DeMEC.gnbRouter[6].pppg$o[6].channel typename "\"inet.node.ethernet.Eth100G\""
par DeMEC.gnbRouter[6].pppg$o[6].channel disabled false
attr mutable ""
par DeMEC.gnbRouter[6].pppg$o[6].channel delay 5e-08s
attr mutable ""
attr unit s
par DeMEC.gnbRouter[6].pppg$o[6].channel datarate 1e+11bps
attr mutable ""
attr unit bps
par DeMEC.gnbRouter[6].pppg$o[6].channel ber 0
attr mutable ""
par DeMEC.gnbRouter[6].pppg$o[6].channel per 0
attr mutable ""
par DeMEC.gnbRouter[6].pppg$o[6].channel length 10m
attr unit m
par DeMEC.gnbRouter[10].pppg$o[1].channel typename "\"inet.node.ethernet.Eth100G\""
par DeMEC.gnbRouter[10].pppg$o[1].channel disabled false
attr mutable ""
par DeMEC.gnbRouter[10].pppg$o[1].channel delay 5e-08s
attr mutable ""
attr unit s
par DeMEC.gnbRouter[10].pppg$o[1].channel datarate 1e+11bps
attr mutable ""
attr unit bps
par DeMEC.gnbRouter[10].pppg$o[1].channel ber 0
attr mutable ""
par DeMEC.gnbRouter[10].pppg$o[1].channel per 0
attr mutable ""
par DeMEC.gnbRouter[10].pppg$o[1].channel length 10m
attr unit m
par DeMEC.gnbRouter[7].pppg$o[2].channel typename "\"inet.node.ethernet.Eth100G\""
par DeMEC.gnbRouter[7].pppg$o[2].channel disabled false
attr mutable ""
par DeMEC.gnbRouter[7].pppg$o[2].channel delay 5e-08s
attr mutable ""
attr unit s
par DeMEC.gnbRouter[7].pppg$o[2].channel datarate 1e+11bps
attr mutable ""
attr unit bps
par DeMEC.gnbRouter[7].pppg$o[2].channel ber 0
attr mutable ""
par DeMEC.gnbRouter[7].pppg$o[2].channel per 0
attr mutable ""
par DeMEC.gnbRouter[7].pppg$o[2].channel length 10m
attr unit m
par DeMEC.gnbRouter[8].pppg$o[2].channel typename "\"inet.node.ethernet.Eth100G\""
par DeMEC.gnbRouter[8].pppg$o[2].channel disabled false
attr mutable ""
par DeMEC.gnbRouter[8].pppg$o[2].channel delay 5e-08s
attr mutable ""
attr unit s
par DeMEC.gnbRouter[8].pppg$o[2].channel datarate 1e+11bps
attr mutable ""
attr unit bps
par DeMEC.gnbRouter[8].pppg$o[2].channel ber 0
attr mutable ""
par DeMEC.gnbRouter[8].pppg$o[2].channel per 0
attr mutable ""
par DeMEC.gnbRouter[8].pppg$o[2].channel length 10m
attr unit m
par DeMEC.gnbRouter[8].pppg$o[3].channel typename "\"inet.node.ethernet.Eth100G\""
par DeMEC.gnbRouter[8].pppg$o[3].channel disabled false
attr mutable ""
par DeMEC.gnbRouter[8].pppg$o[3].channel delay 5e-08s
attr mutable ""
attr unit s
par DeMEC.gnbRouter[8].pppg$o[3].channel datarate 1e+11bps
attr mutable ""
attr unit bps
par DeMEC.gnbRouter[8].pppg$o[3].channel ber 0
attr mutable ""
par DeMEC.gnbRouter[8].pppg$o[3].channel per 0
attr mutable ""
par DeMEC.gnbRouter[8].pppg$o[3].channel length 10m
attr unit m
par DeMEC.gnbRouter[10].pppg$o[2].channel typename "\"inet.node.ethernet.Eth100G\""
par DeMEC.gnbRouter[10].pppg$o[2].channel disabled false
attr mutable ""
par DeMEC.gnbRouter[10].pppg$o[2].channel delay 5e-08s
attr mutable ""
attr unit s
par DeMEC.gnbRouter[10].pppg$o[2].channel datarate 1e+11bps
attr mutable ""
attr unit bps
par DeMEC.gnbRouter[10].pppg$o[2].channel ber 0
attr mutable ""
par DeMEC.gnbRouter[10].pppg$o[2].channel per 0
attr mutable ""
par DeMEC.gnbRouter[10].pppg$o[2].channel length 10m
attr unit m
par DeMEC.gnbRouter[9].pppg$o[2].channel typename "\"inet.node.ethernet.Eth100G\""
par DeMEC.gnbRouter[9].pppg$o[2].channel disabled false
attr mutable ""
par DeMEC.gnbRouter[9].pppg$o[2].channel delay 5e-08s
attr mutable ""
attr unit s
par DeMEC.gnbRouter[9].pppg$o[2].channel datarate 1e+11bps
attr mutable ""
attr unit bps
par DeMEC.gnbRouter[9].pppg$o[2].channel ber 0
attr mutable ""
par DeMEC.gnbRouter[9].pppg$o[2].channel per 0
attr mutable ""
par DeMEC.gnbRouter[9].pppg$o[2].channel length 10m
attr unit m
par DeMEC.gnbRouter[10].pppg$o[3].channel typename "\"inet.node.ethernet.Eth100G\""
par DeMEC.gnbRouter[10].pppg$o[3].channel disabled false
attr mutable ""
par DeMEC.gnbRouter[10].pppg$o[3].channel delay 5e-08s
attr mutable ""
attr unit s
par DeMEC.gnbRouter[10].pppg$o[3].channel datarate 1e+11bps
attr mutable ""
attr unit bps
par DeMEC.gnbRouter[10].pppg$o[3].channel ber 0
attr mutable ""
par DeMEC.gnbRouter[10].pppg$o[3].channel per 0
attr mutable ""
par DeMEC.gnbRouter[10].pppg$o[3].channel length 10m
attr unit m
par DeMEC.gnbRouter[9].pppg$o[3].channel typename "\"inet.node.ethernet.Eth100G\""
par DeMEC.gnbRouter[9].pppg$o[3].channel disabled false
attr mutable ""
par DeMEC.gnbRouter[9].pppg$o[3].channel delay 5e-08s
attr mutable ""
attr unit s
par DeMEC.gnbRouter[9].pppg$o[3].channel datarate 1e+11bps
attr mutable ""
attr unit bps
par DeMEC.gnbRouter[9].pppg$o[3].channel ber 0
attr mutable ""
par DeMEC.gnbRouter[9].pppg$o[3].channel per 0
attr mutable ""
par DeMEC.gnbRouter[9].pppg$o[3].channel length 10m
attr unit m
par DeMEC.gnbRouter[13].pppg$o[1].channel typename "\"inet.node.ethernet.Eth100G\""
par DeMEC.gnbRouter[13].pppg$o[1].channel disabled false
attr mutable ""
par DeMEC.gnbRouter[13].pppg$o[1].channel delay 5e-08s
attr mutable ""
attr unit s
par DeMEC.gnbRouter[13].pppg$o[1].channel datarate 1e+11bps
attr mutable ""
attr unit bps
par DeMEC.gnbRouter[13].pppg$o[1].channel ber 0
attr mutable ""
par DeMEC.gnbRouter[13].pppg$o[1].channel per 0
attr mutable ""
par DeMEC.gnbRouter[13].pppg$o[1].channel length 10m
attr unit m
par DeMEC.gnbRouter[10].pppg$o[4].channel typename "\"inet.node.ethernet.Eth100G\""
par DeMEC.gnbRouter[10].pppg$o[4].channel disabled false
attr mutable ""
par DeMEC.gnbRouter[10].pppg$o[4].channel delay 5e-08s
attr mutable ""
attr unit s
par DeMEC.gnbRouter[10].pppg$o[4].channel datarate 1e+11bps
attr mutable ""
attr unit bps
par DeMEC.gnbRouter[10].pppg$o[4].channel ber 0
attr mutable ""
par DeMEC.gnbRouter[10].pppg$o[4].channel per 0
attr mutable ""
par DeMEC.gnbRouter[10].pppg$o[4].channel length 10m
attr unit m
par DeMEC.gnbRouter[11].pppg$o[1].channel typename "\"inet.node.ethernet.Eth100G\""
par DeMEC.gnbRouter[11].pppg$o[1].channel disabled false
attr mutable ""
par DeMEC.gnbRouter[11].pppg$o[1].channel delay 5e-08s
attr mutable ""
attr unit s
par DeMEC.gnbRouter[11].pppg$o[1].channel datarate 1e+11bps
attr mutable ""
attr unit bps
par DeMEC.gnbRouter[11].pppg$o[1].channel ber 0
attr mutable ""
par DeMEC.gnbRouter[11].pppg$o[1].channel per 0
attr mutable ""
par DeMEC.gnbRouter[11].pppg$o[1].channel length 10m
attr unit m
par DeMEC.gnbRouter[10].pppg$o[5].channel typename "\"inet.node.ethernet.Eth100G\""
par DeMEC.gnbRouter[10].pppg$o[5].channel disabled false
attr mutable ""
par DeMEC.gnbRouter[10].pppg$o[5].channel delay 5e-08s
attr mutable ""
attr unit s
par DeMEC.gnbRouter[10].pppg$o[5].channel datarate 1e+11bps
attr mutable ""
attr unit bps
par DeMEC.gnbRouter[10].pppg$o[5].channel ber 0
attr mutable ""
par DeMEC.gnbRouter[10].pppg$o[5].channel per 0
attr mutable ""
par DeMEC.gnbRouter[10].pppg$o[5].channel length 10m
attr unit m
par DeMEC.gnbRouter[12].pppg$o[1].channel typename "\"inet.node.ethernet.Eth100G\""
par DeMEC.gnbRouter[12].pppg$o[1].channel disabled false
attr mutable ""
par DeMEC.gnbRouter[12].pppg$o[1].channel delay 5e-08s
attr mutable ""
attr unit s
par DeMEC.gnbRouter[12].pppg$o[1].channel datarate 1e+11bps
attr mutable ""
attr unit bps
par DeMEC.gnbRouter[12].pppg$o[1].channel ber 0
attr mutable ""
par DeMEC.gnbRouter[12].pppg$o[1].channel per 0
attr mutable ""
par DeMEC.gnbRouter[12].pppg$o[1].channel length 10m
attr unit m
par DeMEC.gnbRouter[10].pppg$o[6].channel typename "\"inet.node.ethernet.Eth100G\""
par DeMEC.gnbRouter[10].pppg$o[6].channel disabled false
attr mutable ""
par DeMEC.gnbRouter[10].pppg$o[6].channel delay 5e-08s
attr mutable ""
attr unit s
par DeMEC.gnbRouter[10].pppg$o[6].channel datarate 1e+11bps
attr mutable ""
attr unit bps
par DeMEC.gnbRouter[10].pppg$o[6].channel ber 0
attr mutable ""
par DeMEC.gnbRouter[10].pppg$o[6].channel per 0
attr mutable ""
par DeMEC.gnbRouter[10].pppg$o[6].channel length 10m
attr unit m
par DeMEC.gnbRouter[14].pppg$o[1].channel typename "\"inet.node.ethernet.Eth100G\""
par DeMEC.gnbRouter[14].pppg$o[1].channel disabled false
attr mutable ""
par DeMEC.gnbRouter[14].pppg$o[1].channel delay 5e-08s
attr mutable ""
attr unit s
par DeMEC.gnbRouter[14].pppg$o[1].channel datarate 1e+11bps
attr mutable ""
attr unit bps
par DeMEC.gnbRouter[14].pppg$o[1].channel ber 0
attr mutable ""
par DeMEC.gnbRouter[14].pppg$o[1].channel per 0
attr mutable ""
par DeMEC.gnbRouter[14].pppg$o[1].channel length 10m
attr unit m
par DeMEC.gnbRouter[11].pppg$o[2].channel typename "\"inet.node.ethernet.Eth100G\""
par DeMEC.gnbRouter[11].pppg$o[2].channel disabled false
attr mutable ""
par DeMEC.gnbRouter[11].pppg$o[2].channel delay 5e-08s
attr mutable ""
attr unit s
par DeMEC.gnbRouter[11].pppg$o[2].channel datarate 1e+11bps
attr mutable ""
attr unit bps
par DeMEC.gnbRouter[11].pppg$o[2].channel ber 0
attr mutable ""
par DeMEC.gnbRouter[11].pppg$o[2].channel per 0
attr mutable ""
par DeMEC.gnbRouter[11].pppg$o[2].channel length 10m
attr unit m
par DeMEC.gnbRouter[12].pppg$o[2].channel typename "\"inet.node.ethernet.Eth100G\""
par DeMEC.gnbRouter[12].pppg$o[2].channel disabled false
attr mutable ""
par DeMEC.gnbRouter[12].pppg$o[2].channel delay 5e-08s
attr mutable ""
attr unit s
par DeMEC.gnbRouter[12].pppg$o[2].channel datarate 1e+11bps
attr mutable ""
attr unit bps
par DeMEC.gnbRouter[12].pppg$o[2].channel ber 0
attr mutable ""
par DeMEC.gnbRouter[12].pppg$o[2].channel per 0
attr mutable ""
par DeMEC.gnbRouter[12].pppg$o[2].channel length 10m
attr unit m
par DeMEC.gnbRouter[12].pppg$o[3].channel typename "\"inet.node.ethernet.Eth100G\""
par DeMEC.gnbRouter[12].pppg$o[3].channel disabled false
attr mutable ""
par DeMEC.gnbRouter[12].pppg$o[3].channel delay 5e-08s
attr mutable ""
attr unit s
par DeMEC.gnbRouter[12].pppg$o[3].channel datarate 1e+11bps
attr mutable ""
attr unit bps
par DeMEC.gnbRouter[12].pppg$o[3].channel ber 0
attr mutable ""
par DeMEC.gnbRouter[12].pppg$o[3].channel per 0
attr mutable ""
par DeMEC.gnbRouter[12].pppg$o[3].channel length 10m
attr unit m
par DeMEC.gnbRouter[14].pppg$o[2].channel typename "\"inet.node.ethernet.Eth100G\""
par DeMEC.gnbRouter[14].pppg$o[2].channel disabled false
attr mutable ""
par DeMEC.gnbRouter[14].pppg$o[2].channel delay 5e-08s
attr mutable ""
attr unit s
par DeMEC.gnbRouter[14].pppg$o[2].channel datarate 1e+11bps
attr mutable ""
attr unit bps
par DeMEC.gnbRouter[14].pppg$o[2].channel ber 0
attr mutable ""
par DeMEC.gnbRouter[14].pppg$o[2].channel per 0
attr mutable ""
par DeMEC.gnbRouter[14].pppg$o[2].channel length 10m
attr unit m
par DeMEC.gnbRouter[13].pppg$o[2].channel typename "\"inet.node.ethernet.Eth100G\""
par DeMEC.gnbRouter[13].pppg$o[2].channel disabled false
attr mutable ""
par DeMEC.gnbRouter[13].pppg$o[2].channel delay 5e-08s
attr mutable ""
attr unit s
par DeMEC.gnbRouter[13].pppg$o[2].channel datarate 1e+11bps
attr mutable ""
attr unit bps
par DeMEC.gnbRouter[13].pppg$o[2].channel ber 0
attr mutable ""
par DeMEC.gnbRouter[13].pppg$o[2].channel per 0
attr mutable ""
par DeMEC.gnbRouter[13].pppg$o[2].channel length 10m
attr unit m
par DeMEC.gnbRouter[14].pppg$o[3].channel typename "\"inet.node.ethernet.Eth100G\""
par DeMEC.gnbRouter[14].pppg$o[3].channel disabled false
attr mutable ""
par DeMEC.gnbRouter[14].pppg$o[3].channel delay 5e-08s
attr mutable ""
attr unit s
par DeMEC.gnbRouter[14].pppg$o[3].channel datarate 1e+11bps
attr mutable ""
attr unit bps
par DeMEC.gnbRouter[14].pppg$o[3].channel ber 0
attr mutable ""
par DeMEC.gnbRouter[14].pppg$o[3].channel per 0
attr mutable ""
par DeMEC.gnbRouter[14].pppg$o[3].channel length 10m
attr unit m
par DeMEC.gnbRouter[0].pppg$o[3].channel typename "\"inet.node.ethernet.Eth100G\""
par DeMEC.gnbRouter[0].pppg$o[3].channel disabled false
attr mutable ""
par DeMEC.gnbRouter[0].pppg$o[3].channel delay 5e-08s
attr mutable ""
attr unit s
par DeMEC.gnbRouter[0].pppg$o[3].channel datarate 1e+11bps
attr mutable ""
attr unit bps
par DeMEC.gnbRouter[0].pppg$o[3].channel ber 0
attr mutable ""
par DeMEC.gnbRouter[0].pppg$o[3].channel per 0
attr mutable ""
par DeMEC.gnbRouter[0].pppg$o[3].channel length 10m
attr unit m
par DeMEC.upf.pppg$o[0].channel typename "\"inet.node.ethernet.Eth100G\""
par DeMEC.upf.pppg$o[0].channel disabled false
attr mutable ""
par DeMEC.upf.pppg$o[0].channel delay 5e-08s
attr mutable ""
attr unit s
par DeMEC.upf.pppg$o[0].channel datarate 1e+11bps
attr mutable ""
attr unit bps
par DeMEC.upf.pppg$o[0].channel ber 0
attr mutable ""
par DeMEC.upf.pppg$o[0].channel per 0
attr mutable ""
par DeMEC.upf.pppg$o[0].channel length 10m
attr unit m
par DeMEC.upf.pppg$o[1].channel typename "\"inet.node.ethernet.Eth100G\""
par DeMEC.upf.pppg$o[1].channel disabled false
attr mutable ""
par DeMEC.upf.pppg$o[1].channel delay 5e-08s
attr mutable ""
attr unit s
par DeMEC.upf.pppg$o[1].channel datarate 1e+11bps
attr mutable ""
attr unit bps
par DeMEC.upf.pppg$o[1].channel ber 0
attr mutable ""
par DeMEC.upf.pppg$o[1].channel per 0
attr mutable ""
par DeMEC.upf.pppg$o[1].channel length 10m
attr unit m
par DeMEC.schedulerHost.ppp$o[0].channel typename "\"inet.node.ethernet.Eth100G\""
par DeMEC.schedulerHost.ppp$o[0].channel disabled false
attr mutable ""
par DeMEC.schedulerHost.ppp$o[0].channel delay 5e-08s
attr mutable ""
attr unit s
par DeMEC.schedulerHost.ppp$o[0].channel datarate 1e+11bps
attr mutable ""
attr unit bps
par DeMEC.schedulerHost.ppp$o[0].channel ber 0
attr mutable ""
par DeMEC.schedulerHost.ppp$o[0].channel per 0
attr mutable ""
par DeMEC.schedulerHost.ppp$o[0].channel length 10m
attr unit m
par DeMEC.channelControl typename "\"simu5g.world.radio.LteChannelControl\""
par DeMEC.channelControl coreDebug false
par DeMEC.channelControl pMax 20mW
attr unit mW
par DeMEC.channelControl sat -110dBm
attr unit dBm
par DeMEC.channelControl alpha 2
par DeMEC.channelControl carrierFrequency 2.4e+09Hz
attr unit Hz
par DeMEC.channelControl numChannels 1
par DeMEC.channelControl propagationModel "\"FreeSpaceModel\""
attr enum FreeSpaceModel,TwoRayGroundModel,RiceModel,RayleighModel,NakagamiModel,LogNormalShadowingModel
par DeMEC.routingRecorder typename "\"inet.networklayer.ipv4.RoutingTableRecorder\""
par DeMEC.routingRecorder enabled false
par DeMEC.configurator typename "\"inet.networklayer.configurator.ipv4.Ipv4NetworkConfigurator\""
par DeMEC.configurator minLinkWeight 0.001
par DeMEC.configurator configureIsolatedNetworksSeparatly false
par DeMEC.configurator config "<config>...</config> at /home/chuanchao/simulator/mecRT/simulations/decentralized//./demo.xml:1"
par DeMEC.configurator assignAddresses true
par DeMEC.configurator assignUniqueAddresses true
par DeMEC.configurator assignDisjunctSubnetAddresses true
par DeMEC.configurator addStaticRoutes true
par DeMEC.configurator addDefaultRoutes true
par DeMEC.configurator addSubnetRoutes true
par DeMEC.configurator addDirectRoutes true
par DeMEC.configurator optimizeRoutes true
par DeMEC.configurator dumpTopology false
par DeMEC.configurator dumpLinks false
par DeMEC.configurator dumpAddresses false
par DeMEC.configurator dumpRoutes false
par DeMEC.configurator dumpConfig "\"\""
par DeMEC.binder typename "\"simu5g.common.binder.Binder\""
par DeMEC.binder blerShift 5
par DeMEC.binder maxDataRatePerRb 1.16Mbps
attr unit Mbps
par DeMEC.binder printTrafficGeneratorConfig false
par DeMEC.carrierAggregation.componentCarrier[0] typename "\"simu5g.common.carrierAggregation.ComponentCarrier\""
par DeMEC.carrierAggregation.componentCarrier[0] carrierFrequency 2GHz
attr unit GHz
par DeMEC.carrierAggregation.componentCarrier[0] numBands 18
par DeMEC.carrierAggregation.componentCarrier[0] numerologyIndex 0
par DeMEC.carrierAggregation.componentCarrier[0] useTdd false
par DeMEC.carrierAggregation.componentCarrier[0] tddNumSymbolsDl 7
par DeMEC.carrierAggregation.componentCarrier[0] tddNumSymbolsUl 7
par DeMEC.carrierAggregation typename "\"simu5g.common.carrierAggregation.CarrierAggregation\""
par DeMEC.carrierAggregation numComponentCarriers 1
par DeMEC.topologyGen typename "\"mecRT.mecrt.common.NetTopology\""
par DeMEC.topologyGen topologyFile "\"./traffic/RSU15_graph.txt\""
par DeMEC.topologyGen linkType "\"inet.node.ethernet.Eth100G\""
par DeMEC.topologyGen deviceName "\"gnbRouter\""
par DeMEC.topologyGen displayOffsetX 30
par DeMEC.topologyGen displayOffsetY 20
par DeMEC.database typename "\"mecRT.mecrt.common.Database\""
par DeMEC.database vehExeDataPath "\"./profile/jetson_data.txt\""
par DeMEC.database rsuExeDataPath "\"./profile/server_data.txt\""
par DeMEC.database rsuPosDataPath "\"./traffic/RSU15_xy.txt\""
par DeMEC.database rsuGraphPath "\"./traffic/RSU15_graph.txt\""
par DeMEC.database idlePower 1900
par DeMEC.database offloadPower 2210
par DeMEC.database serverExeScale 1
par DeMEC.database maxHops 1
par DeMEC.bandManager typename "\"mecRT.mecrt.common.BandManager\""
par DeMEC.bandManager carrierFrequency 2GHz
attr unit GHz
par DeMEC.bandManager numerologyIndex 0
scalar DeMEC.bandManager offloadEnergyConsumed:sum 0
attr recordingmode sum
attr source offloadEnergyConsumed
attr title "energy consumed for offloading data, sum"
attr unit mJ
scalar DeMEC.bandManager offloadEnergyConsumed:timeavg 0
attr recordingmode timeavg
attr source offloadEnergyConsumed
attr title "energy consumed for offloading data, timeavg"
attr unit mJ
par DeMEC.gnb[0].interfaceTable typename "\"inet.networklayer.common.InterfaceTable\""
par DeMEC.gnb[0].interfaceTable displayAddresses false
par DeMEC.gnb[0].mobility typename "\"mecRT.mecrt.mobility.MecStationaryMobility\""
par DeMEC.gnb[0].mobility subjectModule "\"^\""
par DeMEC.gnb[0].mobility coordinateSystemModule "\"\""
par DeMEC.gnb[0].mobility displayStringTextFormat "\"p: %p\\nv: %v\""
attr mutable ""
par DeMEC.gnb[0].mobility updateDisplayString true
par DeMEC.gnb[0].mobility constraintAreaMinX 0m
attr unit m
par DeMEC.gnb[0].mobility constraintAreaMinY 0m
attr unit m
par DeMEC.gnb[0].mobility constraintAreaMinZ 0m
attr unit m
par DeMEC.gnb[0].mobility constraintAreaMaxX 1500m
attr unit m
par DeMEC.gnb[0].mobility constraintAreaMaxY 1500m
attr unit m
par DeMEC.gnb[0].mobility constraintAreaMaxZ 0m
attr unit m
par DeMEC.gnb[0].mobility initialX 727.755m
attr unit m
par DeMEC.gnb[0].mobility initialY 28.5712m
attr unit m
par DeMEC.gnb[0].mobility initialZ 0m
attr unit m
par DeMEC.gnb[0].mobility initialLatitude "nan deg"
attr unit deg
par DeMEC.gnb[0].mobility initialLongitude "nan deg"
attr unit deg
par DeMEC.gnb[0].mobility initialAltitude 0m
attr unit m
par DeMEC.gnb[0].mobility initialHeading 0deg
attr unit deg
par DeMEC.gnb[0].mobility initialElevation 0deg
attr unit deg
par DeMEC.gnb[0].mobility initialBank 0deg
attr unit deg
par DeMEC.gnb[0].mobility initFromDisplayString false
par DeMEC.gnb[0].mobility updateFromDisplayString true
par DeMEC.gnb[0].cellInfo typename "\"simu5g.common.cellInfo.CellInfo\""
par DeMEC.gnb[0].cellInfo constraintAreaMinX "-inf m"
attr unit m
par DeMEC.gnb[0].cellInfo constraintAreaMinY "-inf m"
attr unit m
par DeMEC.gnb[0].cellInfo constraintAreaMaxX "inf m"
attr unit m
par DeMEC.gnb[0].cellInfo constraintAreaMaxY "inf m"
attr unit m
par DeMEC.gnb[0].cellInfo speed 0mps
attr unit mps
par DeMEC.gnb[0].cellInfo positionUpdateInterval 0.001s
attr unit s
par DeMEC.gnb[0].cellInfo broadcastMessageInterval 1s
attr unit s
par DeMEC.gnb[0].cellInfo microCell false
par DeMEC.gnb[0].cellInfo numRus 0
par DeMEC.gnb[0].cellInfo ruRange 0
par DeMEC.gnb[0].cellInfo ruStartingAngle 0deg
attr unit deg
par DeMEC.gnb[0].cellInfo ruTxPower "\"0;\""
par DeMEC.gnb[0].cellInfo antennaCws "\"1;\""
par DeMEC.gnb[0].cellInfo rbyDl 12
par DeMEC.gnb[0].cellInfo rbyUl 12
par DeMEC.gnb[0].cellInfo rbxDl 7
par DeMEC.gnb[0].cellInfo rbxUl 7
par DeMEC.gnb[0].cellInfo rbPilotDl 3
par DeMEC.gnb[0].cellInfo rbPilotUl 0
par DeMEC.gnb[0].cellInfo signalDl 1
par DeMEC.gnb[0].cellInfo signalUl 1
par DeMEC.gnb[0].cellInfo numPreferredBands 1
par DeMEC.gnb[0].cellularNic.ip2nic.upperLayerOut.channel typename "\"ned.DelayChannel\""
par DeMEC.gnb[0].cellularNic.ip2nic.upperLayerOut.channel disabled false
attr mutable ""
par DeMEC.gnb[0].cellularNic.ip2nic.upperLayerOut.channel delay 0s
attr mutable ""
attr unit s
par DeMEC.gnb[0].cellularNic.upperLayerIn.channel typename "\"ned.DelayChannel\""
par DeMEC.gnb[0].cellularNic.upperLayerIn.channel disabled false
attr mutable ""
par DeMEC.gnb[0].cellularNic.upperLayerIn.channel delay 0s
attr mutable ""
attr unit s
par DeMEC.gnb[0].cellularNic.ip2nic typename "\"mecRT.mecrt.nic.ip2nic.MecIP2Nic\""
par DeMEC.gnb[0].cellularNic.ip2nic nodeType "\"GNODEB\""
par DeMEC.gnb[0].cellularNic.ip2nic interfaceTableModule "\"DeMEC.gnb[0].interfaceTable\""
par DeMEC.gnb[0].cellularNic.ip2nic interfaceName "\"cellular\""
par DeMEC.gnb[0].cellularNic.ip2nic routingTableModule "\"^.ipv4.routingTable\""
par DeMEC.gnb[0].cellularNic.ip2nic mtu 409600B
attr unit B
par DeMEC.gnb[0].cellularNic.pdcpRrc typename "\"mecRT.mecrt.nic.pdcp_rrc.MecPdcpRrcEnb\""
par DeMEC.gnb[0].cellularNic.pdcpRrc headerCompressedSize -1B
attr unit B
par DeMEC.gnb[0].cellularNic.pdcpRrc conversationalRlc 1
par DeMEC.gnb[0].cellularNic.pdcpRrc streamingRlc 1
par DeMEC.gnb[0].cellularNic.pdcpRrc interactiveRlc 1
par DeMEC.gnb[0].cellularNic.pdcpRrc backgroundRlc 1
par DeMEC.gnb[0].cellularNic.rlc.tm typename "\"simu5g.stack.rlc.LteRlcTm\""
par DeMEC.gnb[0].cellularNic.rlc.tm queueSize 2097152B
attr unit B
par DeMEC.gnb[0].cellularNic.rlc.um typename "\"mecRT.mecrt.nic.rlc.MecRlcUm\""
par DeMEC.gnb[0].cellularNic.rlc.um queueSize 2097152B
attr unit B
par DeMEC.gnb[0].cellularNic.rlc.um mapAllLcidsToSingleBearer false
par DeMEC.gnb[0].cellularNic.rlc.am typename "\"simu5g.stack.rlc.LteRlcAm\""
par DeMEC.gnb[0].cellularNic.rlc.mux typename "\"simu5g.stack.rlc.LteRlcMux\""
par DeMEC.gnb[0].cellularNic.rlc typename "\"mecRT.mecrt.nic.rlc.MecRlc\""
par DeMEC.gnb[0].cellularNic.mac typename "\"mecRT.mecrt.nic.mac.GnbMac\""
par DeMEC.gnb[0].cellularNic.mac resAllocateMode true
par DeMEC.gnb[0].cellularNic.mac numRbPerBand 15
par DeMEC.gnb[0].cellularNic.mac connOutdateInterval 0.5s
attr unit s
par DeMEC.gnb[0].cellularNic.mac srsDistanceCheck true
par DeMEC.gnb[0].cellularNic.mac srsDistance 600m
attr unit m
par DeMEC.gnb[0].cellularNic.mac interfaceTableModule "\"DeMEC.gnb[0].interfaceTable\""
par DeMEC.gnb[0].cellularNic.mac interfaceName "\"cellular\""
par DeMEC.gnb[0].cellularNic.mac queueSize 2097152B
attr unit B
par DeMEC.gnb[0].cellularNic.mac muMimo true
par DeMEC.gnb[0].cellularNic.mac harqProcesses 8
par DeMEC.gnb[0].cellularNic.mac maxHarqRtx 3
par DeMEC.gnb[0].cellularNic.mac harqFbEvaluationTimer 4
par DeMEC.gnb[0].cellularNic.mac statDisplay false
par DeMEC.gnb[0].cellularNic.mac amcMode "\"AUTO\""
par DeMEC.gnb[0].cellularNic.mac muMimoMinDistance 50
par DeMEC.gnb[0].cellularNic.mac rbAllocationType "\"localized\""
par DeMEC.gnb[0].cellularNic.mac summaryLowerBound 0.005s
attr unit s
par DeMEC.gnb[0].cellularNic.mac summaryUpperBound 0.02s
attr unit s
par DeMEC.gnb[0].cellularNic.mac fbhbCapacityDl 5
par DeMEC.gnb[0].cellularNic.mac fbhbCapacityUl 5
par DeMEC.gnb[0].cellularNic.mac fbhbCapacityD2D 5
par DeMEC.gnb[0].cellularNic.mac pmiWeight 0
par DeMEC.gnb[0].cellularNic.mac cqiWeight 0
par DeMEC.gnb[0].cellularNic.mac eNodeBCount 0
par DeMEC.gnb[0].cellularNic.mac schedulingDisciplineDl "\"FDSchemeDl\""
par DeMEC.gnb[0].cellularNic.mac schedulingDisciplineUl "\"FDSchemeUl\""
par DeMEC.gnb[0].cellularNic.mac pfAlpha 0.95
par DeMEC.gnb[0].cellularNic.mac pilotMode "\"MEDIAN_CQI\""
par DeMEC.gnb[0].cellularNic.mac usePreconfiguredTxParams false
par DeMEC.gnb[0].cellularNic.mac d2dCqi 7
par DeMEC.gnb[0].cellularNic.mac reuseD2D false
par DeMEC.gnb[0].cellularNic.mac reuseD2DMulti false
par DeMEC.gnb[0].cellularNic.mac conflictGraphUpdatePeriod 1s
attr unit s
par DeMEC.gnb[0].cellularNic.mac conflictGraphThreshold 90
par DeMEC.gnb[0].cellularNic.mac conflictGraphD2DInterferenceRadius -1m
attr unit m
par DeMEC.gnb[0].cellularNic.mac conflictGraphD2DMultiTxRadius -1m
attr unit m
par DeMEC.gnb[0].cellularNic.mac conflictGraphD2DMultiInterferenceRadius -1m
attr unit m
par DeMEC.gnb[0].cellularNic.mac msHarqInterrupt true
par DeMEC.gnb[0].cellularNic.mac msClearRlcBuffer true
par DeMEC.gnb[0].cellularNic.mac amcType "\"NRAmc\""
par DeMEC.gnb[0].cellularNic.phy typename "\"mecRT.mecrt.nic.phy.GnbPhy\""
par DeMEC.gnb[0].cellularNic.phy resAllocateMode true
par DeMEC.gnb[0].cellularNic.phy ueTxPower 50
par DeMEC.gnb[0].cellularNic.phy eNodeBTxPower 1000
par DeMEC.gnb[0].cellularNic.phy microTxPower 30
par DeMEC.gnb[0].cellularNic.phy txDirection "\"OMNI\""
par DeMEC.gnb[0].cellularNic.phy txAngle 0
par DeMEC.gnb[0].cellularNic.phy dynamicCellAssociation true
par DeMEC.gnb[0].cellularNic.phy enableHandover false
par DeMEC.gnb[0].cellularNic.phy handoverLatency 0.05s
attr unit s
par DeMEC.gnb[0].cellularNic.phy enableMulticastD2DRangeCheck false
par DeMEC.gnb[0].cellularNic.phy multicastD2DRange 1000m
attr unit m
par DeMEC.gnb[0].cellularNic.phy targetBler 0.01
par DeMEC.gnb[0].cellularNic.phy lambdaMinTh 0.02
par DeMEC.gnb[0].cellularNic.phy lambdaMaxTh 0.2
par DeMEC.gnb[0].cellularNic.phy lambdaRatioTh 20
par DeMEC.gnb[0].cellularNic.phy enableD2DCqiReporting true
par DeMEC.gnb[0].cellularNic.channelModel[0] typename "\"simu5g.stack.phy.ChannelModel.NRChannelModel_3GPP38_901\""
par DeMEC.gnb[0].cellularNic.channelModel[0] componentCarrierIndex 0
par DeMEC.gnb[0].cellularNic.channelModel[0] shadowing true
par DeMEC.gnb[0].cellularNic.channelModel[0] scenario "\"URBAN_MACROCELL\""
par DeMEC.gnb[0].cellularNic.channelModel[0] nodeb_height 25
par DeMEC.gnb[0].cellularNic.channelModel[0] building_height 20
par DeMEC.gnb[0].cellularNic.channelModel[0] inside_building false
par DeMEC.gnb[0].cellularNic.channelModel[0] street_wide 20
par DeMEC.gnb[0].cellularNic.channelModel[0] ue_height 1.5
par DeMEC.gnb[0].cellularNic.channelModel[0] tolerateMaxDistViolation false
par DeMEC.gnb[0].cellularNic.channelModel[0] useTorus false
par DeMEC.gnb[0].cellularNic.channelModel[0] correlation_distance 50
par DeMEC.gnb[0].cellularNic.channelModel[0] targetBler 0.01
par DeMEC.gnb[0].cellularNic.channelModel[0] harqReduction 0.2
par DeMEC.gnb[0].cellularNic.channelModel[0] lambdaMinTh 0.02
par DeMEC.gnb[0].cellularNic.channelModel[0] lambdaMaxTh 0.2
par DeMEC.gnb[0].cellularNic.channelModel[0] lambdaRatioTh 20
par DeMEC.gnb[0].cellularNic.channelModel[0] antennaGainUe 0
par DeMEC.gnb[0].cellularNic.channelModel[0] antennGainEnB 18
par DeMEC.gnb[0].cellularNic.channelModel[0] antennGainMicro 5
par DeMEC.gnb[0].cellularNic.channelModel[0] thermalNoise -104.5
par DeMEC.gnb[0].cellularNic.channelModel[0] ue_noise_figure 7
par DeMEC.gnb[0].cellularNic.channelModel[0] bs_noise_figure 5
par DeMEC.gnb[0].cellularNic.channelModel[0] cable_loss 2
par DeMEC.gnb[0].cellularNic.channelModel[0] dynamic_los false
par DeMEC.gnb[0].cellularNic.channelModel[0] fixed_los false
par DeMEC.gnb[0].cellularNic.channelModel[0] fading true
par DeMEC.gnb[0].cellularNic.channelModel[0] fading_type "\"JAKES\""
par DeMEC.gnb[0].cellularNic.channelModel[0] fading_paths 6
par DeMEC.gnb[0].cellularNic.channelModel[0] delay_rms 3.63e-07
par DeMEC.gnb[0].cellularNic.channelModel[0] bgCell_interference true
par DeMEC.gnb[0].cellularNic.channelModel[0] extCell_interference true
par DeMEC.gnb[0].cellularNic.channelModel[0] downlink_interference true
par DeMEC.gnb[0].cellularNic.channelModel[0] uplink_interference true
par DeMEC.gnb[0].cellularNic.channelModel[0] d2d_interference true
par DeMEC.gnb[0].cellularNic.channelModel[0] enable_extCell_los true
par DeMEC.gnb[0].cellularNic.channelModel[0] useRsrqFromLog false
par DeMEC.gnb[0].cellularNic.channelModel[0] rsrqShift 22
par DeMEC.gnb[0].cellularNic.channelModel[0] rsrqScale 1
par DeMEC.gnb[0].cellularNic.channelModel[0] collectSinrStatistics false
par DeMEC.gnb[0].cellularNic.channelModel[0] useBuildingPenetrationLossHighLossModel false
par DeMEC.gnb[0].cellularNic.x2Manager typename "\"simu5g.x2.LteX2Manager\""
par DeMEC.gnb[0].cellularNic.handoverManager typename "\"simu5g.stack.handoverManager.LteHandoverManager\""
par DeMEC.gnb[0].cellularNic.handoverManager losslessHandover false
par DeMEC.gnb[0].cellularNic.bgTrafficGenerator[0].manager typename "\"simu5g.stack.backgroundTrafficGenerator.BackgroundTrafficManager\""
par DeMEC.gnb[0].cellularNic.bgTrafficGenerator[0] typename "\"simu5g.stack.backgroundTrafficGenerator.BackgroundTrafficGenerator\""
par DeMEC.gnb[0].cellularNic.bgTrafficGenerator[0] numBgUes 0
par DeMEC.gnb[0].cellularNic.bgTrafficGenerator[0] bgTrafficManagerType "\"BackgroundTrafficManager\""
par DeMEC.gnb[0].cellularNic.bgTrafficGenerator[0] enablePeriodicCqiUpdate true
par DeMEC.gnb[0].cellularNic.bgTrafficGenerator[0] useProbabilisticCqi false
par DeMEC.gnb[0].cellularNic.bgTrafficGenerator[0] computeAvgInterference false
par DeMEC.gnb[0].cellularNic typename "\"mecRT.mecrt.nic.GnbNic\""
par DeMEC.gnb[0].cellularNic displayStringTextFormat "\"%a (%i)\\n%m\""
par DeMEC.gnb[0].cellularNic recordPcap false
par DeMEC.gnb[0].cellularNic numPcapRecorders 0
par DeMEC.gnb[0].cellularNic isWireless true
par DeMEC.gnb[0].cellularNic interfaceTableModule "\"DeMEC.gnb[0].interfaceTable\""
par DeMEC.gnb[0].cellularNic routingTableModule "\"^.ipv4.routingTable\""
par DeMEC.gnb[0].cellularNic hasRNISupport false
par DeMEC.gnb[0].cellularNic nodeType "\"GNODEB\""
par DeMEC.gnb[0].cellularNic processingDelayIn 0s
attr unit s
par DeMEC.gnb[0].cellularNic processingDelayOut 0s
attr unit s
par DeMEC.gnb[0].cellularNic d2dCapable true
par DeMEC.gnb[0].cellularNic dualConnectivityEnabled false
par DeMEC.gnb[0].cellularNic numCarriers 1
par DeMEC.gnb[0].cellularNic address "\"0A-AA-00-00-00-01\""
attr mutable ""
par DeMEC.gnb[0].cellularNic compEnabled false
par DeMEC.gnb[0].pppIf.phys$i.channel typename "\"ned.IdealChannel\""
par DeMEC.gnb[0].pppIf.ppp.phys$o.channel typename "\"ned.IdealChannel\""
par DeMEC.gnb[0].pppIf.ppp.upperLayerOut.channel typename "\"ned.IdealChannel\""
par DeMEC.gnb[0].pppIf.upperLayerIn.channel typename "\"ned.IdealChannel\""
par DeMEC.gnb[0].pppIf.queue typename "\"inet.queueing.queue.DropTailQueue\""
par DeMEC.gnb[0].pppIf.queue displayStringTextFormat "\"contains %p pk (%l) pushed %u\\npulled %o removed %r dropped %d\""
par DeMEC.gnb[0].pppIf.queue packetCapacity 10000
par DeMEC.gnb[0].pppIf.queue dataCapacity -1b
attr unit b
par DeMEC.gnb[0].pppIf.queue dropperClass "\"inet::queueing::PacketAtCollectionEndDropper\""
par DeMEC.gnb[0].pppIf.queue comparatorClass "\"\""
par DeMEC.gnb[0].pppIf.queue bufferModule "\"\""
par DeMEC.gnb[0].pppIf.ppp typename "\"inet.linklayer.ppp.Ppp\""
par DeMEC.gnb[0].pppIf.ppp interfaceTableModule "\"DeMEC.gnb[0].interfaceTable\""
par DeMEC.gnb[0].pppIf.ppp displayStringTextFormat "\"rate: %b\\nsent: %s, rcvd: %r\\nqueue: %q, drop: %d\""
par DeMEC.gnb[0].pppIf.ppp sendRawBytes false
par DeMEC.gnb[0].pppIf.ppp mtu 409600B
attr unit B
par DeMEC.gnb[0].pppIf.ppp stopOperationExtraTime -1s
attr unit s
par DeMEC.gnb[0].pppIf.ppp stopOperationTimeout 2s
attr unit s
par DeMEC.gnb[0].pppIf typename "\"inet.linklayer.ppp.PppInterface\""
par DeMEC.gnb[0].pppIf displayStringTextFormat "\"%a (%i)\\n%m\""
par DeMEC.gnb[0].pppIf recordPcap false
par DeMEC.gnb[0].pppIf numPcapRecorders 0
par DeMEC.gnb[0].pppIf interfaceTableModule "\"DeMEC.gnb[0].interfaceTable\""
par DeMEC.gnb[0].ipv4.transportIn.channel typename "\"ned.IdealChannel\""
par DeMEC.gnb[0].ipv4.up.out[0].channel typename "\"ned.IdealChannel\""
par DeMEC.gnb[0].ipv4.lp.out[2].channel typename "\"ned.IdealChannel\""
par DeMEC.gnb[0].ipv4.ifIn.channel typename "\"ned.IdealChannel\""
par DeMEC.gnb[0].ipv4.configurator typename "\"inet.networklayer.configurator.ipv4.Ipv4NodeConfigurator\""
par DeMEC.gnb[0].ipv4.configurator interfaceTableModule "\"DeMEC.gnb[0].interfaceTable\""
par DeMEC.gnb[0].ipv4.configurator routingTableModule "\"DeMEC.gnb[0].ipv4.routingTable\""
par DeMEC.gnb[0].ipv4.configurator networkConfiguratorModule "\"configurator\""
par DeMEC.gnb[0].ipv4.configurator configureRoutingTable true
par DeMEC.gnb[0].ipv4.routingTable typename "\"inet.networklayer.ipv4.Ipv4RoutingTable\""
par DeMEC.gnb[0].ipv4.routingTable interfaceTableModule "\"DeMEC.gnb[0].interfaceTable\""
par DeMEC.gnb[0].ipv4.routingTable routerId "\"auto\""
par DeMEC.gnb[0].ipv4.routingTable netmaskRoutes "\"*\""
par DeMEC.gnb[0].ipv4.routingTable forwarding true
par DeMEC.gnb[0].ipv4.routingTable multicastForwarding false
par DeMEC.gnb[0].ipv4.routingTable useAdminDist false
par DeMEC.gnb[0].ipv4.routingTable routingFile "\"\""
par DeMEC.gnb[0].ipv4.natTable typename "\"inet.networklayer.ipv4.Ipv4NatTable\""
par DeMEC.gnb[0].ipv4.natTable networkProtocolModule "\"^.ip\""
par DeMEC.gnb[0].ipv4.natTable config "<config/> at content:1"
par DeMEC.gnb[0].ipv4.up typename "\"inet.common.MessageDispatcher\""
par DeMEC.gnb[0].ipv4.up displayStringTextFormat "\"processed %p pk (%l)\""
par DeMEC.gnb[0].ipv4.up forwardServiceRegistration true
par DeMEC.gnb[0].ipv4.up forwardProtocolRegistration true
par DeMEC.gnb[0].ipv4.igmp typename "\"inet.networklayer.ipv4.Igmpv2\""
par DeMEC.gnb[0].ipv4.igmp interfaceTableModule "\"DeMEC.gnb[0].interfaceTable\""
par DeMEC.gnb[0].ipv4.igmp routingTableModule "\"DeMEC.gnb[0].ipv4.routingTable\""
par DeMEC.gnb[0].ipv4.igmp crcMode "\"declared\""
attr enum declared,computed
par DeMEC.gnb[0].ipv4.igmp enabled true
par DeMEC.gnb[0].ipv4.igmp robustnessVariable 2
par DeMEC.gnb[0].ipv4.igmp queryInterval 125s
attr unit s
par DeMEC.gnb[0].ipv4.igmp queryResponseInterval 10s
attr unit s
par DeMEC.gnb[0].ipv4.igmp groupMembershipInterval 260s
attr unit s
par DeMEC.gnb[0].ipv4.igmp otherQuerierPresentInterval 255s
attr unit s
par DeMEC.gnb[0].ipv4.igmp startupQueryInterval 31.25s
attr unit s
par DeMEC.gnb[0].ipv4.igmp startupQueryCount 2
par DeMEC.gnb[0].ipv4.igmp lastMemberQueryInterval 1s
attr unit s
par DeMEC.gnb[0].ipv4.igmp lastMemberQueryCount 2
par DeMEC.gnb[0].ipv4.igmp unsolicitedReportInterval 10s
attr unit s
par DeMEC.gnb[0].ipv4.icmp typename "\"inet.networklayer.ipv4.Icmp\""
par DeMEC.gnb[0].ipv4.icmp interfaceTableModule "\"DeMEC.gnb[0].interfaceTable\""
par DeMEC.gnb[0].ipv4.icmp routingTableModule "\"DeMEC.gnb[0].ipv4.routingTable\""
par DeMEC.gnb[0].ipv4.icmp crcMode "\"declared\""
attr enum declared,computed
attr mutable ""
par DeMEC.gnb[0].ipv4.icmp quoteLength 8B
attr mutable ""
attr unit B
par DeMEC.gnb[0].ipv4.mp typename "\"inet.common.MessageDispatcher\""
par DeMEC.gnb[0].ipv4.mp displayStringTextFormat "\"processed %p pk (%l)\""
par DeMEC.gnb[0].ipv4.mp forwardServiceRegistration true
par DeMEC.gnb[0].ipv4.mp forwardProtocolRegistration true
par DeMEC.gnb[0].ipv4.ip typename "\"inet.networklayer.ipv4.Ipv4\""
par DeMEC.gnb[0].ipv4.ip interfaceTableModule "\"DeMEC.gnb[0].interfaceTable\""
par DeMEC.gnb[0].ipv4.ip routingTableModule "\"DeMEC.gnb[0].ipv4.routingTable\""
par DeMEC.gnb[0].ipv4.ip arpModule "\"DeMEC.gnb[0].ipv4.arp\""
par DeMEC.gnb[0].ipv4.ip icmpModule "\"DeMEC.gnb[0].ipv4.icmp\""
par DeMEC.gnb[0].ipv4.ip crcMode "\"declared\""
attr enum declared,computed
par DeMEC.gnb[0].ipv4.ip timeToLive 32
par DeMEC.gnb[0].ipv4.ip multicastTimeToLive 32
par DeMEC.gnb[0].ipv4.ip fragmentTimeout 60s
attr unit s
par DeMEC.gnb[0].ipv4.ip limitedBroadcast false
par DeMEC.gnb[0].ipv4.ip directBroadcastInterfaces "\"\""
par DeMEC.gnb[0].ipv4.arp typename "\"inet.networklayer.arp.ipv4.Arp\""
par DeMEC.gnb[0].ipv4.arp interfaceTableModule "\"DeMEC.gnb[0].interfaceTable\""
par DeMEC.gnb[0].ipv4.arp routingTableModule "\"DeMEC.gnb[0].ipv4.routingTable\""
par DeMEC.gnb[0].ipv4.arp retryTimeout 1s
attr unit s
par DeMEC.gnb[0].ipv4.arp retryCount 3
par DeMEC.gnb[0].ipv4.arp cacheTimeout 120s
attr unit s
par DeMEC.gnb[0].ipv4.arp proxyArpInterfaces "\"*\""
par DeMEC.gnb[0].ipv4.lp typename "\"inet.common.MessageDispatcher\""
par DeMEC.gnb[0].ipv4.lp displayStringTextFormat "\"processed %p pk (%l)\""
par DeMEC.gnb[0].ipv4.lp forwardServiceRegistration true
par DeMEC.gnb[0].ipv4.lp forwardProtocolRegistration true
par DeMEC.gnb[0].ipv4 typename "\"inet.networklayer.ipv4.Ipv4NetworkLayer\""
par DeMEC.gnb[0].ipv4 forwarding true
par DeMEC.gnb[0].ipv4 multicastForwarding false
par DeMEC.gnb[0].ipv4 interfaceTableModule "\"DeMEC.gnb[0].interfaceTable\""
par DeMEC.gnb[0].ipv4 displayStringTextFormat "\"%i\""
par DeMEC.gnb[0].server typename "\"mecRT.mecrt.apps.server.Server\""
par DeMEC.gnb[0].server localPort 2000
par DeMEC.gnb[0].server schedulerAddr "\"schedulerHost\""
par DeMEC.gnb[0].server schedulerPort 1000
par DeMEC.gnb[0].server cmpUnitTotal 20
par DeMEC.gnb[0].server resourceType 0
par DeMEC.gnb[0].server serviceInitMinTime 10
par DeMEC.gnb[0].server serviceInitMaxTime 50
scalar DeMEC.gnb[0].server missDlPkt:sum 0
attr recordingmode sum
attr source missDlPkt
attr title "number of jobs missing deadline, sum"
scalar DeMEC.gnb[0].server failedSrvDownPkt:sum 0
attr recordingmode sum
attr source failedSrvDownPkt
attr title "number of jobs failed due to server down, sum"
scalar DeMEC.gnb[0].server meetDlPkt:sum 0
attr recordingmode sum
attr source meetDlPkt
attr title "number of jobs meeting deadline, sum"
par DeMEC.gnb[0].udp typename "\"mecRT.mecrt.udp.MecUdp\""
par DeMEC.gnb[0].udp interfaceTableModule "\"DeMEC.gnb[0].interfaceTable\""
par DeMEC.gnb[0].udp icmpModule "\"^.ipv4.icmp\""
par DeMEC.gnb[0].udp icmpv6Module "\"^.ipv6.icmpv6\""
par DeMEC.gnb[0].udp crcMode "\"declared\""
attr enum disabled,declared,computed
par DeMEC.gnb[0].udp defaultMulticastLoop true
par DeMEC.gnb[0].udp mtu 409600B
attr unit B
par DeMEC.gnb[0].at typename "\"inet.common.MessageDispatcher\""
par DeMEC.gnb[0].at displayStringTextFormat "\"processed %p pk (%l)\""
par DeMEC.gnb[0].at forwardServiceRegistration true
par DeMEC.gnb[0].at forwardProtocolRegistration true
par DeMEC.gnb[0].tn typename "\"inet.common.MessageDispatcher\""
par DeMEC.gnb[0].tn displayStringTextFormat "\"processed %p pk (%l)\""
par DeMEC.gnb[0].tn forwardServiceRegistration true
par DeMEC.gnb[0].tn forwardProtocolRegistration true
par DeMEC.gnb[0].nl typename "\"inet.common.MessageDispatcher\""
par DeMEC.gnb[0].nl displayStringTextFormat "\"processed %p pk (%l)\""
par DeMEC.gnb[0].nl forwardServiceRegistration true
par DeMEC.gnb[0].nl forwardProtocolRegistration true
par DeMEC.gnb[0].trafficFlowFilter typename "\"simu5g.corenetwork.trafficFlowFilter.TrafficFlowFilter\""
par DeMEC.gnb[0].trafficFlowFilter ownerType "\"GNODEB\""
par DeMEC.gnb[0].trafficFlowFilter fastForwarding true
par DeMEC.gnb[0].gtpUser typename "\"mecRT.mecrt.coreNetwork.MecGtpUser\""
par DeMEC.gnb[0].gtpUser interfaceTableModule "\"DeMEC.gnb[0].interfaceTable\""
par DeMEC.gnb[0].gtpUser ipOutInterface "\"cellular\""
par DeMEC.gnb[0].gtpUser localPort 31
par DeMEC.gnb[0].gtpUser tunnelPeerPort 31
par DeMEC.gnb[0].gtpUser filter true
par DeMEC.gnb[0] typename "\"mecRT.mecrt.gNodeB\""
par DeMEC.gnb[0] nodeType "\"GNODEB\""
par DeMEC.gnb[0] gateway "\"upf\""
par DeMEC.gnb[0] masterId 0
attr mutable ""
par DeMEC.gnb[0] macNodeId 1
attr mutable ""
par DeMEC.gnb[0] macCellId 1
attr mutable ""
par DeMEC.gnb[0] txPower 100mw
attr unit mw
par DeMEC.gnb[0] nicType "\"GnbNic\""
par DeMEC.gnb[0] hasGtpX2 false
par DeMEC.gnb[0] hasGtp true
par DeMEC.gnb[0] hasIpv4 true
par DeMEC.gnb[0] hasIpv6 false
par DeMEC.gnb[0] numApps 0
par DeMEC.gnb[0] numX2Apps 0
par DeMEC.gnb[0] hasUdp true
par DeMEC.gnb[0] hasTcp false
par DeMEC.gnb[0] hasSctp false
par DeMEC.gnb[0] enableMecHost false
par DeMEC.gnb[0] mecHost "\"\""
par DeMEC.gnb[0] StatsCollectorType "\"GNodeBStatsCollector\""
par DeMEC.gnb[0] hasRNISupport false
par DeMEC.gnb[0] extMeAppsAddress "\"\""
par DeMEC.gnb[0] mcc "\"001\""
par DeMEC.gnb[0] mnc "\"01\""
par DeMEC.gnb[1].interfaceTable typename "\"inet.networklayer.common.InterfaceTable\""
par DeMEC.gnb[1].interfaceTable displayAddresses false
par DeMEC.gnb[1].mobility typename "\"mecRT.mecrt.mobility.MecStationaryMobility\""
par DeMEC.gnb[1].mobility subjectModule "\"^\""
par DeMEC.gnb[1].mobility coordinateSystemModule "\"\""
par DeMEC.gnb[1].mobility displayStringTextFormat "\"p: %p\\nv: %v\""
attr mutable ""
par DeMEC.gnb[1].mobility updateDisplayString true
par DeMEC.gnb[1].mobility constraintAreaMinX 0m
attr unit m
par DeMEC.gnb[1].mobility constraintAreaMinY 0m
attr unit m
par DeMEC.gnb[1].mobility constraintAreaMinZ 0m
attr unit m
par DeMEC.gnb[1].mobility constraintAreaMaxX 1500m
attr unit m
par DeMEC.gnb[1].mobility constraintAreaMaxY 1500m
attr unit m
par DeMEC.gnb[1].mobility constraintAreaMaxZ 0m
attr unit m
par DeMEC.gnb[1].mobility initialX 76.7037m
attr unit m
par DeMEC.gnb[1].mobility initialY 1218.97m
attr unit m
par DeMEC.gnb[1].mobility initialZ 0m
attr unit m
par DeMEC.gnb[1].mobility initialLatitude "nan deg"
attr unit deg
par DeMEC.gnb[1].mobility initialLongitude "nan deg"
attr unit deg
par DeMEC.gnb[1].mobility initialAltitude 0m
attr unit m
par DeMEC.gnb[1].mobility initialHeading 0deg
attr unit deg
par DeMEC.gnb[1].mobility initialElevation 0deg
attr unit deg
par DeMEC.gnb[1].mobility initialBank 0deg
attr unit deg
par DeMEC.gnb[1].mobility initFromDisplayString false
par DeMEC.gnb[1].mobility updateFromDisplayString true
par DeMEC.gnb[1].cellInfo typename "\"simu5g.common.cellInfo.CellInfo\""
par DeMEC.gnb[1].cellInfo constraintAreaMinX "-inf m"
attr unit m
par DeMEC.gnb[1].cellInfo constraintAreaMinY "-inf m"
attr unit m
par DeMEC.gnb[1].cellInfo constraintAreaMaxX "inf m"
attr unit m
par DeMEC.gnb[1].cellInfo constraintAreaMaxY "inf m"
attr unit m
par DeMEC.gnb[1].cellInfo speed 0mps
attr unit mps
par DeMEC.gnb[1].cellInfo positionUpdateInterval 0.001s
attr unit s
par DeMEC.gnb[1].cellInfo broadcastMessageInterval 1s
attr unit s
par DeMEC.gnb[1].cellInfo microCell false
par DeMEC.gnb[1].cellInfo numRus 0
par DeMEC.gnb[1].cellInfo ruRange 0
par DeMEC.gnb[1].cellInfo ruStartingAngle 0deg
attr unit deg
par DeMEC.gnb[1].cellInfo ruTxPower "\"0;\""
par DeMEC.gnb[1].cellInfo antennaCws "\"1;\""
par DeMEC.gnb[1].cellInfo rbyDl 12
par DeMEC.gnb[1].cellInfo rbyUl 12
par DeMEC.gnb[1].cellInfo rbxDl 7
par DeMEC.gnb[1].cellInfo rbxUl 7
par DeMEC.gnb[1].cellInfo rbPilotDl 3
par DeMEC.gnb[1].cellInfo rbPilotUl 0
par DeMEC.gnb[1].cellInfo signalDl 1
par DeMEC.gnb[1].cellInfo signalUl 1
par DeMEC.gnb[1].cellInfo numPreferredBands 1
par DeMEC.gnb[1].cellularNic.ip2nic.upperLayerOut.channel typename "\"ned.DelayChannel\""
par DeMEC.gnb[1].cellularNic.ip2nic.upperLayerOut.channel disabled false
attr mutable ""
par DeMEC.gnb[1].cellularNic.ip2nic.upperLayerOut.channel delay 0s
attr mutable ""
attr unit s
par DeMEC.gnb[1].cellularNic.upperLayerIn.channel typename "\"ned.DelayChannel\""
par DeMEC.gnb[1].cellularNic.upperLayerIn.channel disabled false
attr mutable ""
par DeMEC.gnb[1].cellularNic.upperLayerIn.channel delay 0s
attr mutable ""
attr unit s
par DeMEC.gnb[1].cellularNic.ip2nic typename "\"mecRT.mecrt.nic.ip2nic.MecIP2Nic\""
par DeMEC.gnb[1].cellularNic.ip2nic nodeType "\"GNODEB\""
par DeMEC.gnb[1].cellularNic.ip2nic interfaceTableModule "\"DeMEC.gnb[1].interfaceTable\""
par DeMEC.gnb[1].cellularNic.ip2nic interfaceName "\"cellular\""
par DeMEC.gnb[1].cellularNic.ip2nic routingTableModule "\"^.ipv4.routingTable\""
par DeMEC.gnb[1].cellularNic.ip2nic mtu 409600B
attr unit B
par DeMEC.gnb[1].cellularNic.pdcpRrc typename "\"mecRT.mecrt.nic.pdcp_rrc.MecPdcpRrcEnb\""
par DeMEC.gnb[1].cellularNic.pdcpRrc headerCompressedSize -1B
attr unit B
par DeMEC.gnb[1].cellularNic.pdcpRrc conversationalRlc 1
par DeMEC.gnb[1].cellularNic.pdcpRrc streamingRlc 1
par DeMEC.gnb[1].cellularNic.pdcpRrc interactiveRlc 1
par DeMEC.gnb[1].cellularNic.pdcpRrc backgroundRlc 1
par DeMEC.gnb[1].cellularNic.rlc.tm typename "\"simu5g.stack.rlc.LteRlcTm\""
par DeMEC.gnb[1].cellularNic.rlc.tm queueSize 2097152B
attr unit B
par DeMEC.gnb[1].cellularNic.rlc.um typename "\"mecRT.mecrt.nic.rlc.MecRlcUm\""
par DeMEC.gnb[1].cellularNic.rlc.um queueSize 2097152B
attr unit B
par DeMEC.gnb[1].cellularNic.rlc.um mapAllLcidsToSingleBearer false
par DeMEC.gnb[1].cellularNic.rlc.am typename "\"simu5g.stack.rlc.LteRlcAm\""
par DeMEC.gnb[1].cellularNic.rlc.mux typename "\"simu5g.stack.rlc.LteRlcMux\""
par DeMEC.gnb[1].cellularNic.rlc typename "\"mecRT.mecrt.nic.rlc.MecRlc\""
par DeMEC.gnb[1].cellularNic.mac typename "\"mecRT.mecrt.nic.mac.GnbMac\""
par DeMEC.gnb[1].cellularNic.mac resAllocateMode true
par DeMEC.gnb[1].cellularNic.mac numRbPerBand 15
par DeMEC.gnb[1].cellularNic.mac connOutdateInterval 0.5s
attr unit s
par DeMEC.gnb[1].cellularNic.mac srsDistanceCheck true
par DeMEC.gnb[1].cellularNic.mac srsDistance 600m
attr unit m
par DeMEC.gnb[1].cellularNic.mac interfaceTableModule "\"DeMEC.gnb[1].interfaceTable\""
par DeMEC.gnb[1].cellularNic.mac interfaceName "\"cellular\""
par DeMEC.gnb[1].cellularNic.mac queueSize 2097152B
attr unit B
par DeMEC.gnb[1].cellularNic.mac muMimo true
par DeMEC.gnb[1].cellularNic.mac harqProcesses 8
par DeMEC.gnb[1].cellularNic.mac maxHarqRtx 3
par DeMEC.gnb[1].cellularNic.mac harqFbEvaluationTimer 4
par DeMEC.gnb[1].cellularNic.mac statDisplay false
par DeMEC.gnb[1].cellularNic.mac amcMode "\"AUTO\""
par DeMEC.gnb[1].cellularNic.mac muMimoMinDistance 50
par DeMEC.gnb[1].cellularNic.mac rbAllocationType "\"localized\""
par DeMEC.gnb[1].cellularNic.mac summaryLowerBound 0.005s
attr unit s
par DeMEC.gnb[1].cellularNic.mac summaryUpperBound 0.02s
attr unit s
par DeMEC.gnb[1].cellularNic.mac fbhbCapacityDl 5
par DeMEC.gnb[1].cellularNic.mac fbhbCapacityUl 5
par DeMEC.gnb[1].cellularNic.mac fbhbCapacityD2D 5
par DeMEC.gnb[1].cellularNic.mac pmiWeight 0
par DeMEC.gnb[1].cellularNic.mac cqiWeight 0
par DeMEC.gnb[1].cellularNic.mac eNodeBCount 0
par DeMEC.gnb[1].cellularNic.mac schedulingDisciplineDl "\"FDSchemeDl\""
par DeMEC.gnb[1].cellularNic.mac schedulingDisciplineUl "\"FDSchemeUl\""
par DeMEC.gnb[1].cellularNic.mac pfAlpha 0.95
par DeMEC.gnb[1].cellularNic.mac pilotMode "\"MEDIAN_CQI\""
par DeMEC.gnb[1].cellularNic.mac usePreconfiguredTxParams false
par DeMEC.gnb[1].cellularNic.mac d2dCqi 7
par DeMEC.gnb[1].cellularNic.mac reuseD2D false
par DeMEC.gnb[1].cellularNic.mac reuseD2DMulti false
par DeMEC.gnb[1].cellularNic.mac conflictGraphUpdatePeriod 1s
attr unit s
par DeMEC.gnb[1].cellularNic.mac conflictGraphThreshold 90
par DeMEC.gnb[1].cellularNic.mac conflictGraphD2DInterferenceRadius -1m
attr unit m
par DeMEC.gnb[1].cellularNic.mac conflictGraphD2DMultiTxRadius -1m
attr unit m
par DeMEC.gnb[1].cellularNic.mac conflictGraphD2DMultiInterferenceRadius -1m
attr unit m
par DeMEC.gnb[1].cellularNic.mac msHarqInterrupt true
par DeMEC.gnb[1].cellularNic.mac msClearRlcBuffer true
par DeMEC.gnb[1].cellularNic.mac amcType "\"NRAmc\""
par DeMEC.gnb[1].cellularNic.phy typename "\"mecRT.mecrt.nic.phy.GnbPhy\""
par DeMEC.gnb[1].cellularNic.phy resAllocateMode true
par DeMEC.gnb[1].cellularNic.phy ueTxPower 50
par DeMEC.gnb[1].cellularNic.phy eNodeBTxPower 1000
par DeMEC.gnb[1].cellularNic.phy microTxPower 30
par DeMEC.gnb[1].cellularNic.phy txDirection "\"OMNI\""
par DeMEC.gnb[1].cellularNic.phy txAngle 0
par DeMEC.gnb[1].cellularNic.phy dynamicCellAssociation true
par DeMEC.gnb[1].cellularNic.phy enableHandover false
par DeMEC.gnb[1].cellularNic.phy handoverLatency 0.05s
attr unit s
par DeMEC.gnb[1].cellularNic.phy enableMulticastD2DRangeCheck false
par DeMEC.gnb[1].cellularNic.phy multicastD2DRange 1000m
attr unit m
par DeMEC.gnb[1].cellularNic.phy targetBler 0.01
par DeMEC.gnb[1].cellularNic.phy lambdaMinTh 0.02
par DeMEC.gnb[1].cellularNic.phy lambdaMaxTh 0.2
par DeMEC.gnb[1].cellularNic.phy lambdaRatioTh 20
par DeMEC.gnb[1].cellularNic.phy enableD2DCqiReporting true
par DeMEC.gnb[1].cellularNic.channelModel[0] typename "\"simu5g.stack.phy.ChannelModel.NRChannelModel_3GPP38_901\""
par DeMEC.gnb[1].cellularNic.channelModel[0] componentCarrierIndex 0
par DeMEC.gnb[1].cellularNic.channelModel[0] shadowing true
[...]
attr unit s
par DeMEC.schedulerHost.ipv4.igmp lastMemberQueryCount 2
par DeMEC.schedulerHost.ipv4.igmp unsolicitedReportInterval 10s
attr unit s
par DeMEC.schedulerHost.ipv4.icmp typename "\"inet.networklayer.ipv4.Icmp\""
par DeMEC.schedulerHost.ipv4.icmp interfaceTableModule "\"DeMEC.schedulerHost.interfaceTable\""
par DeMEC.schedulerHost.ipv4.icmp routingTableModule "\"DeMEC.schedulerHost.ipv4.routingTable\""
par DeMEC.schedulerHost.ipv4.icmp crcMode "\"declared\""
attr enum declared,computed
attr mutable ""
par DeMEC.schedulerHost.ipv4.icmp quoteLength 8B
attr mutable ""
attr unit B
par DeMEC.schedulerHost.ipv4.mp typename "\"inet.common.MessageDispatcher\""
par DeMEC.schedulerHost.ipv4.mp displayStringTextFormat "\"processed %p pk (%l)\""
par DeMEC.schedulerHost.ipv4.mp forwardServiceRegistration true
par DeMEC.schedulerHost.ipv4.mp forwardProtocolRegistration true
par DeMEC.schedulerHost.ipv4.ip typename "\"inet.networklayer.ipv4.Ipv4\""
par DeMEC.schedulerHost.ipv4.ip interfaceTableModule "\"DeMEC.schedulerHost.interfaceTable\""
par DeMEC.schedulerHost.ipv4.ip routingTableModule "\"DeMEC.schedulerHost.ipv4.routingTable\""
par DeMEC.schedulerHost.ipv4.ip arpModule "\"DeMEC.schedulerHost.ipv4.arp\""
par DeMEC.schedulerHost.ipv4.ip icmpModule "\"DeMEC.schedulerHost.ipv4.icmp\""
par DeMEC.schedulerHost.ipv4.ip crcMode "\"declared\""
attr enum declared,computed
par DeMEC.schedulerHost.ipv4.ip timeToLive 32
par DeMEC.schedulerHost.ipv4.ip multicastTimeToLive 32
par DeMEC.schedulerHost.ipv4.ip fragmentTimeout 60s
attr unit s
par DeMEC.schedulerHost.ipv4.ip limitedBroadcast false
par DeMEC.schedulerHost.ipv4.ip directBroadcastInterfaces "\"\""
par DeMEC.schedulerHost.ipv4.arp typename "\"inet.networklayer.arp.ipv4.Arp\""
par DeMEC.schedulerHost.ipv4.arp interfaceTableModule "\"DeMEC.schedulerHost.interfaceTable\""
par DeMEC.schedulerHost.ipv4.arp routingTableModule "\"DeMEC.schedulerHost.ipv4.routingTable\""
par DeMEC.schedulerHost.ipv4.arp retryTimeout 1s
attr unit s
par DeMEC.schedulerHost.ipv4.arp retryCount 3
par DeMEC.schedulerHost.ipv4.arp cacheTimeout 120s
attr unit s
par DeMEC.schedulerHost.ipv4.arp proxyArpInterfaces "\"*\""
par DeMEC.schedulerHost.ipv4.lp typename "\"inet.common.MessageDispatcher\""
par DeMEC.schedulerHost.ipv4.lp displayStringTextFormat "\"processed %p pk (%l)\""
par DeMEC.schedulerHost.ipv4.lp forwardServiceRegistration true
par DeMEC.schedulerHost.ipv4.lp forwardProtocolRegistration true
par DeMEC.schedulerHost.ipv4 typename "\"inet.networklayer.ipv4.Ipv4NetworkLayer\""
par DeMEC.schedulerHost.ipv4 forwarding false
par DeMEC.schedulerHost.ipv4 multicastForwarding false
par DeMEC.schedulerHost.ipv4 interfaceTableModule "\"DeMEC.schedulerHost.interfaceTable\""
par DeMEC.schedulerHost.ipv4 displayStringTextFormat "\"%i\""
par DeMEC.schedulerHost.scheduler typename "\"mecRT.mecrt.apps.scheduler.Scheduler\""
par DeMEC.schedulerHost.scheduler localPort 1000
par DeMEC.schedulerHost.scheduler periodicScheduling true
par DeMEC.schedulerHost.scheduler scheduleInterval 10s
attr unit s
par DeMEC.schedulerHost.scheduler grantAckInterval 1s
attr unit s
par DeMEC.schedulerHost.scheduler appStopInterval 0.05s
attr unit s
par DeMEC.schedulerHost.scheduler connOutdateInterval 0.5s
attr unit s
par DeMEC.schedulerHost.scheduler offloadOverhead 0.001s
attr unit s
par DeMEC.schedulerHost.scheduler scheduleScheme "\"FwdGreedy\""
par DeMEC.schedulerHost.scheduler rescheduleAll true
par DeMEC.schedulerHost.scheduler countExeTime true
par DeMEC.schedulerHost.scheduler numerologyIndex 0
par DeMEC.schedulerHost.scheduler cuStep 1
par DeMEC.schedulerHost.scheduler rbStep 1
par DeMEC.schedulerHost.scheduler srvTimeScale 1
par DeMEC.schedulerHost.scheduler enableBackhaul true
par DeMEC.schedulerHost.scheduler virtualLinkRate 1e+07
par DeMEC.schedulerHost.scheduler fairFactor 1
scalar DeMEC.schedulerHost.scheduler grantedAppCount:mean -nan
attr recordingmode mean
attr source grantedAppCount
attr title "number of granted apps, mean"
scalar DeMEC.schedulerHost.scheduler grantedAppCount:sum 0
attr recordingmode sum
attr source grantedAppCount
attr title "number of granted apps, sum"
scalar DeMEC.schedulerHost.scheduler pendingAppCount:mean 0
attr recordingmode mean
attr source pendingAppCount
attr title "number of apps pending to schedule, mean"
scalar DeMEC.schedulerHost.scheduler pendingAppCount:sum 0
attr recordingmode sum
attr source pendingAppCount
attr title "number of apps pending to schedule, sum"
scalar DeMEC.schedulerHost.scheduler savedEnergy:timeavg -nan
attr recordingmode timeavg
attr source savedEnergy
attr title "total energy saved, timeavg"
scalar DeMEC.schedulerHost.scheduler savedEnergy:sum 0
attr recordingmode sum
attr source savedEnergy
attr title "total energy saved, sum"
scalar DeMEC.schedulerHost.scheduler instanceGenerateTime:mean -nan
attr recordingmode mean
attr source instanceGenerateTime
attr title "schedule instance generating time, mean"
scalar DeMEC.schedulerHost.scheduler instanceGenerateTime:sum 0
attr recordingmode sum
attr source instanceGenerateTime
attr title "schedule instance generating time, sum"
scalar DeMEC.schedulerHost.scheduler schemeTime:mean 5.5e-05
attr recordingmode mean
attr source schemeTime
attr title "scheme execution time, mean"
scalar DeMEC.schedulerHost.scheduler schemeTime:sum 0.00033
attr recordingmode sum
attr source schemeTime
attr title "scheme execution time, sum"
scalar DeMEC.schedulerHost.scheduler schedulingTime:mean 5.5e-05
attr recordingmode mean
attr source schedulingTime
attr title "scheduling time, mean"
scalar DeMEC.schedulerHost.scheduler schedulingTime:sum 0.00033
attr recordingmode sum
attr source schedulingTime
attr title "scheduling time, sum"
par DeMEC.schedulerHost.udp typename "\"inet.transportlayer.udp.Udp\""
par DeMEC.schedulerHost.udp interfaceTableModule "\"DeMEC.schedulerHost.interfaceTable\""
par DeMEC.schedulerHost.udp icmpModule "\"^.ipv4.icmp\""
par DeMEC.schedulerHost.udp icmpv6Module "\"^.ipv6.icmpv6\""
par DeMEC.schedulerHost.udp crcMode "\"declared\""
attr enum disabled,declared,computed
par DeMEC.schedulerHost.udp defaultMulticastLoop true
par DeMEC.schedulerHost.at typename "\"inet.common.MessageDispatcher\""
par DeMEC.schedulerHost.at displayStringTextFormat "\"processed %p pk (%l)\""
par DeMEC.schedulerHost.at forwardServiceRegistration true
par DeMEC.schedulerHost.at forwardProtocolRegistration true
par DeMEC.schedulerHost.tn typename "\"inet.common.MessageDispatcher\""
par DeMEC.schedulerHost.tn displayStringTextFormat "\"processed %p pk (%l)\""
par DeMEC.schedulerHost.tn forwardServiceRegistration true
par DeMEC.schedulerHost.tn forwardProtocolRegistration true
par DeMEC.schedulerHost.nl typename "\"inet.common.MessageDispatcher\""
par DeMEC.schedulerHost.nl displayStringTextFormat "\"processed %p pk (%l)\""
par DeMEC.schedulerHost.nl forwardServiceRegistration true
par DeMEC.schedulerHost.nl forwardProtocolRegistration true
par DeMEC.schedulerHost typename "\"mecRT.mecrt.apps.scheduler.SchedulerHost\""
par DeMEC.schedulerHost gateway "\"upf\""
par DeMEC.schedulerHost hasIpv4 true
par DeMEC.schedulerHost hasIpv6 false
par DeMEC.schedulerHost hasTcp false
par DeMEC.schedulerHost numExtEthInterfaces 0
par DeMEC.upf.pppg$i[0].channel typename "\"ned.IdealChannel\""
par DeMEC.upf.ppp[0].phys$o.channel typename "\"ned.IdealChannel\""
par DeMEC.upf.pppg$i[1].channel typename "\"ned.IdealChannel\""
par DeMEC.upf.ppp[1].phys$o.channel typename "\"ned.IdealChannel\""
par DeMEC.upf.interfaceTable typename "\"inet.networklayer.common.InterfaceTable\""
par DeMEC.upf.interfaceTable displayAddresses false
par DeMEC.upf.cb typename "\"inet.common.MessageDispatcher\""
par DeMEC.upf.cb displayStringTextFormat "\"processed %p pk (%l)\""
par DeMEC.upf.cb forwardServiceRegistration true
par DeMEC.upf.cb forwardProtocolRegistration true
par DeMEC.upf.bl typename "\"inet.common.MessageDispatcher\""
par DeMEC.upf.bl displayStringTextFormat "\"processed %p pk (%l)\""
par DeMEC.upf.bl forwardServiceRegistration true
par DeMEC.upf.bl forwardProtocolRegistration true
par DeMEC.upf.li typename "\"inet.common.MessageDispatcher\""
par DeMEC.upf.li displayStringTextFormat "\"processed %p pk (%l)\""
par DeMEC.upf.li forwardServiceRegistration true
par DeMEC.upf.li forwardProtocolRegistration true
par DeMEC.upf.lo[0].upperLayerIn.channel typename "\"ned.IdealChannel\""
par DeMEC.upf.lo[0].lo.upperLayerOut.channel typename "\"ned.IdealChannel\""
par DeMEC.upf.lo[0].lo typename "\"inet.linklayer.loopback.Loopback\""
par DeMEC.upf.lo[0].lo interfaceTableModule "\"DeMEC.upf.interfaceTable\""
par DeMEC.upf.lo[0].lo mtu 409600B
attr unit B
par DeMEC.upf.lo[0] typename "\"inet.linklayer.loopback.LoopbackInterface\""
par DeMEC.upf.lo[0] displayStringTextFormat "\"%a (%i)\\n%m\""
par DeMEC.upf.lo[0] recordPcap false
par DeMEC.upf.lo[0] numPcapRecorders 0
par DeMEC.upf.lo[0] interfaceTableModule "\"DeMEC.upf.interfaceTable\""
par DeMEC.upf.ppp[0].phys$i.channel typename "\"ned.IdealChannel\""
par DeMEC.upf.ppp[0].ppp.phys$o.channel typename "\"ned.IdealChannel\""
par DeMEC.upf.ppp[0].ppp.upperLayerOut.channel typename "\"ned.IdealChannel\""
par DeMEC.upf.ppp[0].upperLayerIn.channel typename "\"ned.IdealChannel\""
par DeMEC.upf.ppp[0].queue typename "\"inet.queueing.queue.DropTailQueue\""
par DeMEC.upf.ppp[0].queue displayStringTextFormat "\"contains %p pk (%l) pushed %u\\npulled %o removed %r dropped %d\""
par DeMEC.upf.ppp[0].queue packetCapacity 10000
par DeMEC.upf.ppp[0].queue dataCapacity -1b
attr unit b
par DeMEC.upf.ppp[0].queue dropperClass "\"inet::queueing::PacketAtCollectionEndDropper\""
par DeMEC.upf.ppp[0].queue comparatorClass "\"\""
par DeMEC.upf.ppp[0].queue bufferModule "\"\""
par DeMEC.upf.ppp[0].ppp typename "\"inet.linklayer.ppp.Ppp\""
par DeMEC.upf.ppp[0].ppp interfaceTableModule "\"DeMEC.upf.interfaceTable\""
par DeMEC.upf.ppp[0].ppp displayStringTextFormat "\"rate: %b\\nsent: %s, rcvd: %r\\nqueue: %q, drop: %d\""
par DeMEC.upf.ppp[0].ppp sendRawBytes false
par DeMEC.upf.ppp[0].ppp mtu 409600B
attr unit B
par DeMEC.upf.ppp[0].ppp stopOperationExtraTime -1s
attr unit s
par DeMEC.upf.ppp[0].ppp stopOperationTimeout 2s
attr unit s
par DeMEC.upf.ppp[0] typename "\"inet.linklayer.ppp.PppInterface\""
par DeMEC.upf.ppp[0] displayStringTextFormat "\"%a (%i)\\n%m\""
par DeMEC.upf.ppp[0] recordPcap false
par DeMEC.upf.ppp[0] numPcapRecorders 0
par DeMEC.upf.ppp[0] interfaceTableModule "\"DeMEC.upf.interfaceTable\""
par DeMEC.upf.ppp[1].phys$i.channel typename "\"ned.IdealChannel\""
par DeMEC.upf.ppp[1].ppp.phys$o.channel typename "\"ned.IdealChannel\""
par DeMEC.upf.ppp[1].ppp.upperLayerOut.channel typename "\"ned.IdealChannel\""
par DeMEC.upf.ppp[1].upperLayerIn.channel typename "\"ned.IdealChannel\""
par DeMEC.upf.ppp[1].queue typename "\"inet.queueing.queue.DropTailQueue\""
par DeMEC.upf.ppp[1].queue displayStringTextFormat "\"contains %p pk (%l) pushed %u\\npulled %o removed %r dropped %d\""
par DeMEC.upf.ppp[1].queue packetCapacity 10000
par DeMEC.upf.ppp[1].queue dataCapacity -1b
attr unit b
par DeMEC.upf.ppp[1].queue dropperClass "\"inet::queueing::PacketAtCollectionEndDropper\""
par DeMEC.upf.ppp[1].queue comparatorClass "\"\""
par DeMEC.upf.ppp[1].queue bufferModule "\"\""
par DeMEC.upf.ppp[1].ppp typename "\"inet.linklayer.ppp.Ppp\""
par DeMEC.upf.ppp[1].ppp interfaceTableModule "\"DeMEC.upf.interfaceTable\""
par DeMEC.upf.ppp[1].ppp displayStringTextFormat "\"rate: %b\\nsent: %s, rcvd: %r\\nqueue: %q, drop: %d\""
par DeMEC.upf.ppp[1].ppp sendRawBytes false
par DeMEC.upf.ppp[1].ppp mtu 409600B
attr unit B
par DeMEC.upf.ppp[1].ppp stopOperationExtraTime -1s
attr unit s
par DeMEC.upf.ppp[1].ppp stopOperationTimeout 2s
attr unit s
par DeMEC.upf.ppp[1] typename "\"inet.linklayer.ppp.PppInterface\""
par DeMEC.upf.ppp[1] displayStringTextFormat "\"%a (%i)\\n%m\""
par DeMEC.upf.ppp[1] recordPcap false
par DeMEC.upf.ppp[1] numPcapRecorders 0
par DeMEC.upf.ppp[1] interfaceTableModule "\"DeMEC.upf.interfaceTable\""
par DeMEC.upf.ipv4.transportIn.channel typename "\"ned.IdealChannel\""
par DeMEC.upf.ipv4.up.out[0].channel typename "\"ned.IdealChannel\""
par DeMEC.upf.ipv4.lp.out[2].channel typename "\"ned.IdealChannel\""
par DeMEC.upf.ipv4.ifIn.channel typename "\"ned.IdealChannel\""
par DeMEC.upf.ipv4.configurator typename "\"inet.networklayer.configurator.ipv4.Ipv4NodeConfigurator\""
par DeMEC.upf.ipv4.configurator interfaceTableModule "\"DeMEC.upf.interfaceTable\""
par DeMEC.upf.ipv4.configurator routingTableModule "\"DeMEC.upf.ipv4.routingTable\""
par DeMEC.upf.ipv4.configurator networkConfiguratorModule "\"configurator\""
par DeMEC.upf.ipv4.configurator configureRoutingTable true
par DeMEC.upf.ipv4.routingTable typename "\"inet.networklayer.ipv4.Ipv4RoutingTable\""
par DeMEC.upf.ipv4.routingTable interfaceTableModule "\"DeMEC.upf.interfaceTable\""
par DeMEC.upf.ipv4.routingTable routerId "\"auto\""
par DeMEC.upf.ipv4.routingTable netmaskRoutes "\"*\""
par DeMEC.upf.ipv4.routingTable forwarding true
par DeMEC.upf.ipv4.routingTable multicastForwarding false
par DeMEC.upf.ipv4.routingTable useAdminDist false
par DeMEC.upf.ipv4.routingTable routingFile "\"\""
par DeMEC.upf.ipv4.natTable typename "\"inet.networklayer.ipv4.Ipv4NatTable\""
par DeMEC.upf.ipv4.natTable networkProtocolModule "\"^.ip\""
par DeMEC.upf.ipv4.natTable config "<config/> at content:1"
par DeMEC.upf.ipv4.up typename "\"inet.common.MessageDispatcher\""
par DeMEC.upf.ipv4.up displayStringTextFormat "\"processed %p pk (%l)\""
par DeMEC.upf.ipv4.up forwardServiceRegistration true
par DeMEC.upf.ipv4.up forwardProtocolRegistration true
par DeMEC.upf.ipv4.igmp typename "\"inet.networklayer.ipv4.Igmpv2\""
par DeMEC.upf.ipv4.igmp interfaceTableModule "\"DeMEC.upf.interfaceTable\""
par DeMEC.upf.ipv4.igmp routingTableModule "\"DeMEC.upf.ipv4.routingTable\""
par DeMEC.upf.ipv4.igmp crcMode "\"declared\""
attr enum declared,computed
par DeMEC.upf.ipv4.igmp enabled true
par DeMEC.upf.ipv4.igmp robustnessVariable 2
par DeMEC.upf.ipv4.igmp queryInterval 125s
attr unit s
par DeMEC.upf.ipv4.igmp queryResponseInterval 10s
attr unit s
par DeMEC.upf.ipv4.igmp groupMembershipInterval 260s
attr unit s
par DeMEC.upf.ipv4.igmp otherQuerierPresentInterval 255s
attr unit s
par DeMEC.upf.ipv4.igmp startupQueryInterval 31.25s
attr unit s
par DeMEC.upf.ipv4.igmp startupQueryCount 2
par DeMEC.upf.ipv4.igmp lastMemberQueryInterval 1s
attr unit s
par DeMEC.upf.ipv4.igmp lastMemberQueryCount 2
par DeMEC.upf.ipv4.igmp unsolicitedReportInterval 10s
attr unit s
par DeMEC.upf.ipv4.icmp typename "\"inet.networklayer.ipv4.Icmp\""
par DeMEC.upf.ipv4.icmp interfaceTableModule "\"DeMEC.upf.interfaceTable\""
par DeMEC.upf.ipv4.icmp routingTableModule "\"DeMEC.upf.ipv4.routingTable\""
par DeMEC.upf.ipv4.icmp crcMode "\"declared\""
attr enum declared,computed
attr mutable ""
par DeMEC.upf.ipv4.icmp quoteLength 8B
attr mutable ""
attr unit B
par DeMEC.upf.ipv4.mp typename "\"inet.common.MessageDispatcher\""
par DeMEC.upf.ipv4.mp displayStringTextFormat "\"processed %p pk (%l)\""
par DeMEC.upf.ipv4.mp forwardServiceRegistration true
par DeMEC.upf.ipv4.mp forwardProtocolRegistration true
par DeMEC.upf.ipv4.ip typename "\"inet.networklayer.ipv4.Ipv4\""
par DeMEC.upf.ipv4.ip interfaceTableModule "\"DeMEC.upf.interfaceTable\""
par DeMEC.upf.ipv4.ip routingTableModule "\"DeMEC.upf.ipv4.routingTable\""
par DeMEC.upf.ipv4.ip arpModule "\"DeMEC.upf.ipv4.arp\""
par DeMEC.upf.ipv4.ip icmpModule "\"DeMEC.upf.ipv4.icmp\""
par DeMEC.upf.ipv4.ip crcMode "\"declared\""
attr enum declared,computed
par DeMEC.upf.ipv4.ip timeToLive 32
par DeMEC.upf.ipv4.ip multicastTimeToLive 32
par DeMEC.upf.ipv4.ip fragmentTimeout 60s
attr unit s
par DeMEC.upf.ipv4.ip limitedBroadcast false
par DeMEC.upf.ipv4.ip directBroadcastInterfaces "\"\""
par DeMEC.upf.ipv4.arp typename "\"inet.networklayer.arp.ipv4.Arp\""
par DeMEC.upf.ipv4.arp interfaceTableModule "\"DeMEC.upf.interfaceTable\""
par DeMEC.upf.ipv4.arp routingTableModule "\"DeMEC.upf.ipv4.routingTable\""
par DeMEC.upf.ipv4.arp retryTimeout 1s
attr unit s
par DeMEC.upf.ipv4.arp retryCount 3
par DeMEC.upf.ipv4.arp cacheTimeout 120s
attr unit s
par DeMEC.upf.ipv4.arp proxyArpInterfaces "\"*\""
par DeMEC.upf.ipv4.lp typename "\"inet.common.MessageDispatcher\""
par DeMEC.upf.ipv4.lp displayStringTextFormat "\"processed %p pk (%l)\""
par DeMEC.upf.ipv4.lp forwardServiceRegistration true
par DeMEC.upf.ipv4.lp forwardProtocolRegistration true
par DeMEC.upf.ipv4 typename "\"inet.networklayer.ipv4.Ipv4NetworkLayer\""
par DeMEC.upf.ipv4 forwarding true
par DeMEC.upf.ipv4 multicastForwarding false
par DeMEC.upf.ipv4 interfaceTableModule "\"DeMEC.upf.interfaceTable\""
par DeMEC.upf.ipv4 displayStringTextFormat "\"%i\""
par DeMEC.upf.nl typename "\"inet.common.MessageDispatcher\""
par DeMEC.upf.nl displayStringTextFormat "\"processed %p pk (%l)\""
par DeMEC.upf.nl forwardServiceRegistration true
par DeMEC.upf.nl forwardProtocolRegistration true
par DeMEC.upf.tn typename "\"inet.common.MessageDispatcher\""
par DeMEC.upf.tn displayStringTextFormat "\"processed %p pk (%l)\""
par DeMEC.upf.tn forwardServiceRegistration true
par DeMEC.upf.tn forwardProtocolRegistration true
par DeMEC.upf.at typename "\"inet.common.MessageDispatcher\""
par DeMEC.upf.at displayStringTextFormat "\"processed %p pk (%l)\""
par DeMEC.upf.at forwardServiceRegistration true
par DeMEC.upf.at forwardProtocolRegistration true
par DeMEC.upf.ospf typename "\"inet.routing.ospfv2.Ospfv2\""
par DeMEC.upf.ospf interfaceTableModule "\"DeMEC.upf.interfaceTable\""
par DeMEC.upf.ospf routingTableModule "\"^.ipv4.routingTable\""
par DeMEC.upf.ospf crcMode "\"declared\""
attr enum declared,computed
par DeMEC.upf.ospf startupTime 0s
attr unit s
par DeMEC.upf.ospf ospfConfig "<OSPFASConfig>...</OSPFASConfig> at /home/chuanchao/simulator/mecRT/simulations/decentralized//ospfConfig.xml:2"
par DeMEC.upf.ospf routerPriority 1
par DeMEC.upf.ospf areaID "\"0.0.0.0\""
par DeMEC.upf.ospf RFC1583Compatible false
par DeMEC.upf.ospf DistributeDefaultRoute false
par DeMEC.upf.ospf helloInterval 10s
attr unit s
par DeMEC.upf.ospf pollInterval 120s
attr unit s
par DeMEC.upf.ospf routerDeadInterval 40s
attr unit s
par DeMEC.upf.ospf retransmissionInterval 5s
attr unit s
par DeMEC.upf.ospf interfaceTransmissionDelay 1s
attr unit s
par DeMEC.upf.ospf interfaceMode "\"Active\""
attr enum Active,Passive,NoOSPF
par DeMEC.upf.ospf referenceBandwidth 100000000bps
attr unit bps
par DeMEC.upf.ospf interfaceOutputCost 0
par DeMEC.upf.ospf externalInterfaceOutputCost 1
par DeMEC.upf.ospf externalInterfaceOutputType "\"Type2\""
par DeMEC.upf.ospf forwardingAddress "\"0.0.0.0\""
par DeMEC.upf.ospf linkCost 1
par DeMEC.upf.ospf authenticationType "\"NullType\""
attr enum SimplePasswordType,CrytographicType,NullType
par DeMEC.upf.ospf authenticationKey "\"0x00\""
par DeMEC.upf typename "\"mecRT.mecrt.routing.MecRouter\""
par DeMEC.upf hasStatus false
par DeMEC.upf osgModel "\"\""
par DeMEC.upf osgModelColor "\"\""
par DeMEC.upf canvasImage "\"\""
par DeMEC.upf canvasImageColor "\"\""
par DeMEC.upf recordPcap false
par DeMEC.upf numPcapRecorders 0
par DeMEC.upf numLoInterfaces 1
par DeMEC.upf numWlanInterfaces 0
par DeMEC.upf numEthInterfaces 0
par DeMEC.upf numPppInterfaces 0
par DeMEC.upf numTunInterfaces 0
par DeMEC.upf numVirtInterfaces 0
par DeMEC.upf fcsMode "\"declared\""
attr enum declared,computed
par DeMEC.upf hasIpv4 true
par DeMEC.upf hasIpv6 false
par DeMEC.upf hasGn false
par DeMEC.upf forwarding true
par DeMEC.upf multicastForwarding false
par DeMEC.upf hasUdp false
par DeMEC.upf hasTcp false
par DeMEC.upf hasSctp false
par DeMEC.upf numApps 0
par DeMEC.upf hasEigrp false
par DeMEC.upf hasOspf true
par DeMEC.upf hasRip false
par DeMEC.upf hasBgp false
par DeMEC.upf hasPim false
par DeMEC.upf hasDhcp false
par DeMEC typename "\"mecRT.simulations.decentralized.DeMEC\""
par DeMEC numUe 5
par DeMEC numGnb 15
par DeMEC numBgCells 0
par DeMEC enableInitDebug false

